@<TRIPOS>MOLECULE
PBS
  105   105     1     0     0
SMALL
abcg2


@<TRIPOS>ATOM
      1 C17         17.3530    -1.9910     1.1410 c3         1 PBS      -0.088100
      2 C16         16.2730    -0.9180     1.1630 c3         1 PBS      -0.074400
      3 C15         14.9280    -1.4210     0.6530 c3         1 PBS      -0.075400
      4 C14         13.8350    -0.3600     0.6680 c3         1 PBS      -0.074400
      5 C13         12.4840    -0.8910     0.2060 c3         1 PBS      -0.074400
      6 C12         11.3760     0.1550     0.2120 c3         1 PBS      -0.073400
      7 C11         10.0150    -0.4270    -0.1510 c3         1 PBS      -0.075400
      8 C10          8.8840     0.5940    -0.1580 c3         1 PBS      -0.073400
      9 C9           7.5240    -0.0430    -0.4150 c3         1 PBS      -0.075400
     10 C8           6.3680     0.9500    -0.4350 c3         1 PBS      -0.073400
     11 C7           5.0160     0.2730    -0.6240 c3         1 PBS      -0.075400
     12 C6           3.8420     1.2440    -0.6610 c3         1 PBS      -0.075400
     13 C5           2.5000     0.5340    -0.7980 c3         1 PBS      -0.074400
     14 C4           1.3220     1.5000    -0.8670 c3         1 PBS      -0.107400
     15 C3          -0.0200     0.7870    -1.0210 c3         1 PBS       0.135300
     16 O32         -0.2330    -0.1190     0.0440 oh         1 PBS      -0.652000
     17 C2          -1.2070     1.7700    -1.1490 c3         1 PBS       0.129300
     18 O1          -0.8880     2.8870    -1.9460 oh         1 PBS      -0.642000
     19 C1          -2.4820     1.1040    -1.7050 c3         1 PBS       0.091700
     20 N           -2.9120     0.0110    -0.8660 ns         1 PBS      -0.498900
     21 C18         -3.4810    -1.1190    -1.3220 c          1 PBS       0.613100
     22 O2          -3.6670    -1.3360    -2.5120 o          1 PBS      -0.608100
     23 C19         -3.8380    -2.1120    -0.2350 c3         1 PBS      -0.150400
     24 C20         -4.6710    -3.2900    -0.7080 c3         1 PBS      -0.062400
     25 C21         -5.0620    -4.2050     0.4470 c3         1 PBS      -0.077400
     26 C22         -5.9190    -5.3870     0.0130 c3         1 PBS      -0.074400
     27 C23         -6.3370    -6.2800     1.1740 c3         1 PBS      -0.076400
     28 C24         -7.2010    -7.4620     0.7510 c3         1 PBS      -0.074400
     29 C25         -7.6160    -8.3410     1.9230 c3         1 PBS      -0.089100
     30 C           -3.6260     2.0910    -1.9020 c3         1 PBS       0.143600
     31 OC1         -3.9280     2.6790    -0.6530 os         1 PBS      -0.477000
     32 CG1         -5.2020     3.2200    -0.5490 c6         1 PBS       0.359300
     33 OG          -6.2050     2.2420    -0.5890 os         1 PBS      -0.449000
     34 CG          -6.1370     1.2910     0.4610 c6         1 PBS       0.171300
     35 CG5         -7.1990     0.2420     0.2150 c3         1 PBS       0.170600
     36 OG6         -6.8710    -0.4520    -0.9650 oh         1 PBS      -0.711000
     37 CG4         -6.2720     1.9620     1.8200 c6         1 PBS       0.147300
     38 OG5         -7.5690     2.4960     1.9430 oh         1 PBS      -0.714000
     39 CG3         -5.2000     3.0430     1.9470 c6         1 PBS       0.140300
     40 OG4         -5.4020     3.7030     3.1740 oh         1 PBS      -0.674000
     41 CG2         -5.2890     4.0010     0.7650 c6         1 PBS       0.114300
     42 OG3         -4.2640     4.9550     0.8950 oh         1 PBS      -0.711000
     43 H171        17.0640    -2.8520     1.7480 hc         1 PBS       0.031367
     44 H172        17.5320    -2.3510     0.1260 hc         1 PBS       0.031367
     45 H173        18.3010    -1.6170     1.5300 hc         1 PBS       0.031367
     46 H161        16.1540    -0.5410     2.1840 hc         1 PBS       0.036200
     47 H162        16.5930    -0.0620     0.5610 hc         1 PBS       0.036200
     48 H151        15.0470    -1.8040    -0.3660 hc         1 PBS       0.036700
     49 H152        14.6100    -2.2770     1.2600 hc         1 PBS       0.036700
     50 H141        13.7360     0.0440     1.6820 hc         1 PBS       0.037200
     51 H142        14.1360     0.4820     0.0350 hc         1 PBS       0.037200
     52 H131        12.5810    -1.3080    -0.8030 hc         1 PBS       0.036700
     53 H132        12.1890    -1.7280     0.8490 hc         1 PBS       0.036700
     54 H121        11.3180     0.6180     1.2040 hc         1 PBS       0.037200
     55 H122        11.6300     0.9630    -0.4840 hc         1 PBS       0.037200
     56 H111        10.0730    -0.9080    -1.1340 hc         1 PBS       0.037200
     57 H112         9.7720    -1.2240     0.5600 hc         1 PBS       0.037200
     58 H101         8.8610     1.1200     0.8040 hc         1 PBS       0.037200
     59 H102         9.0820     1.3580    -0.9170 hc         1 PBS       0.037200
     60 H91          7.5490    -0.5850    -1.3670 hc         1 PBS       0.037200
     61 H92          7.3350    -0.7970     0.3570 hc         1 PBS       0.037200
     62 H81          6.3610     1.5210     0.5010 hc         1 PBS       0.037200
     63 H82          6.5270     1.6820    -1.2350 hc         1 PBS       0.037200
     64 H71          5.0290    -0.3130    -1.5500 hc         1 PBS       0.038200
     65 H72          4.8610    -0.4480     0.1870 hc         1 PBS       0.038200
     66 H61          3.8410     1.8510     0.2510 hc         1 PBS       0.037700
     67 H62          3.9750     1.9450    -1.4920 hc         1 PBS       0.037700
     68 H51          2.5090    -0.0870    -1.7010 hc         1 PBS       0.044200
     69 H52          2.3760    -0.1540     0.0430 hc         1 PBS       0.044200
     70 H41          1.3000     2.1250     0.0350 hc         1 PBS       0.050200
     71 H42          1.4780     2.1840    -1.7040 hc         1 PBS       0.050200
     72 H3           0.0170     0.1690    -1.9280 h1         1 PBS       0.074700
     73 H32         -0.1110     0.3620     0.8700 ho         1 PBS       0.438000
     74 H2          -1.4150     2.1750    -0.1520 h1         1 PBS       0.085700
     75 HO1         -0.6580     2.5850    -2.8310 ho         1 PBS       0.439000
     76 H1          -2.2400     0.6930    -2.6920 h1         1 PBS       0.076700
     77 HN          -2.7770     0.1020     0.1270 hn         1 PBS       0.314500
     78 H191        -2.9050    -2.4650     0.2180 hc         1 PBS       0.053200
     79 H192        -4.3690    -1.5830     0.5630 hc         1 PBS       0.053200
     80 H201        -5.5750    -2.9210    -1.1980 hc         1 PBS       0.055700
     81 H202        -4.1200    -3.8640    -1.4580 hc         1 PBS       0.055700
     82 H211        -4.1600    -4.5740     0.9460 hc         1 PBS       0.033700
     83 H212        -5.6060    -3.6210     1.1980 hc         1 PBS       0.033700
     84 H221        -6.8130    -5.0170    -0.5010 hc         1 PBS       0.039200
     85 H222        -5.3710    -5.9840    -0.7250 hc         1 PBS       0.039200
     86 H231        -5.4430    -6.6530     1.6870 hc         1 PBS       0.035700
     87 H232        -6.8800    -5.6800     1.9130 hc         1 PBS       0.035700
     88 H241        -8.0940    -7.0920     0.2370 hc         1 PBS       0.037200
     89 H242        -6.6570    -8.0650     0.0180 hc         1 PBS       0.037200
     90 H251        -6.7450    -8.7540     2.4350 hc         1 PBS       0.031033
     91 H252        -8.1900    -7.7720     2.6580 hc         1 PBS       0.031033
     92 H253        -8.2350    -9.1780     1.5980 hc         1 PBS       0.031033
     93 H1A         -3.3620     2.8610    -2.6360 h1         1 PBS       0.054700
     94 H2A         -4.4810     1.5370    -2.2990 h1         1 PBS       0.054700
     95 HG1         -5.4170     3.8850    -1.3980 h2         1 PBS       0.069700
     96 HG          -5.1660     0.7800     0.4490 h1         1 PBS       0.055700
     97 HG51        -7.2170    -0.4250     1.0870 h1         1 PBS       0.035200
     98 HG52        -8.1880     0.7100     0.1480 h1         1 PBS       0.035200
     99 HG6         -7.5160    -1.1530    -1.0890 ho         1 PBS       0.505000
    100 HG4         -6.0870     1.1980     2.5910 h1         1 PBS       0.047700
    101 HG5         -7.5950     3.0300     2.7440 ho         1 PBS       0.521000
    102 HG3         -4.2190     2.5460     1.9280 h1         1 PBS       0.061700
    103 H4          -4.8410     4.4870     3.1930 ho         1 PBS       0.469000
    104 HG2         -6.2760     4.4820     0.7840 h1         1 PBS       0.064700
    105 H5          -4.4990     5.7320     0.3800 ho         1 PBS       0.512000
@<TRIPOS>BOND
     1     1     2 1   
     2     1    43 1   
     3     1    44 1   
     4     1    45 1   
     5     2     3 1   
     6     2    46 1   
     7     2    47 1   
     8     3     4 1   
     9     3    48 1   
    10     3    49 1   
    11     4     5 1   
    12     4    50 1   
    13     4    51 1   
    14     5     6 1   
    15     5    52 1   
    16     5    53 1   
    17     6     7 1   
    18     6    54 1   
    19     6    55 1   
    20     7     8 1   
    21     7    56 1   
    22     7    57 1   
    23     8     9 1   
    24     8    58 1   
    25     8    59 1   
    26     9    10 1   
    27     9    60 1   
    28     9    61 1   
    29    10    11 1   
    30    10    62 1   
    31    10    63 1   
    32    11    12 1   
    33    11    64 1   
    34    11    65 1   
    35    12    13 1   
    36    12    66 1   
    37    12    67 1   
    38    13    14 1   
    39    13    68 1   
    40    13    69 1   
    41    14    15 1   
    42    14    70 1   
    43    14    71 1   
    44    15    16 1   
    45    15    17 1   
    46    15    72 1   
    47    16    73 1   
    48    17    18 1   
    49    17    19 1   
    50    17    74 1   
    51    18    75 1   
    52    19    20 1   
    53    19    30 1   
    54    19    76 1   
    55    20    21 1   
    56    20    77 1   
    57    21    22 2   
    58    21    23 1   
    59    23    24 1   
    60    23    78 1   
    61    23    79 1   
    62    24    25 1   
    63    24    80 1   
    64    24    81 1   
    65    25    26 1   
    66    25    82 1   
    67    25    83 1   
    68    26    27 1   
    69    26    84 1   
    70    26    85 1   
    71    27    28 1   
    72    27    86 1   
    73    27    87 1   
    74    28    29 1   
    75    28    88 1   
    76    28    89 1   
    77    29    90 1   
    78    29    91 1   
    79    29    92 1   
    80    30    31 1   
    81    30    93 1   
    82    30    94 1   
    83    31    32 1   
    84    32    33 1   
    85    32    41 1   
    86    32    95 1   
    87    33    34 1   
    88    34    35 1   
    89    34    37 1   
    90    34    96 1   
    91    35    36 1   
    92    35    97 1   
    93    35    98 1   
    94    36    99 1   
    95    37    38 1   
    96    37    39 1   
    97    37   100 1   
    98    38   101 1   
    99    39    40 1   
   100    39    41 1   
   101    39   102 1   
   102    40   103 1   
   103    41    42 1   
   104    41   104 1   
   105    42   105 1   
@<TRIPOS>SUBSTRUCTURE
     1 PBS         1 TEMP              0 ****  ****    0 ROOT
