@<TRIPOS>MOLECULE
PBV
   19    19     1     0     0
SMALL
No Charge or Current Charge


@<TRIPOS>ATOM
      1 C1           8.7080     5.6600    -8.8380 ca         1 PBV       0.399300
      2 C2           7.4260     5.4460    -9.3820 ca         1 PBV      -0.215000
      3 C4           9.5260     4.4970    -8.2940 c3         1 PBV      -0.127700
      4 C5           6.6940     6.5390    -9.8720 ca         1 PBV      -0.035000
      5 C6           8.5630     7.9050    -9.2280 ca         1 PBV       0.597900
      6 C7           9.0660     4.0480    -6.8920 c3         1 PBV      -0.084100
      7 C8           7.2880     7.8060    -9.7900 ca         1 PBV      -0.232000
      8 N3           9.2730     6.8870    -8.7630 nb         1 PBV      -0.752000
      9 N9           9.2280     9.0550    -9.1050 nv         1 PBV      -1.054900
     10 H1           7.0100     4.4430    -9.4210 ha         1 PBV       0.122000
     11 H2           9.4520     3.6450    -8.9810 hc         1 PBV       0.050200
     12 H3          10.5900     4.7600    -8.2510 hc         1 PBV       0.050200
     13 H4           5.7010     6.4070   -10.2990 ha         1 PBV       0.114000
     14 H5           9.6770     3.2100    -6.5370 hc         1 PBV       0.037700
     15 H6           9.1600     4.8710    -6.1730 hc         1 PBV       0.037700
     16 H7           8.0180     3.7240    -6.9120 hc         1 PBV       0.037700
     17 H8           6.7700     8.6890   -10.1520 ha         1 PBV       0.120000
     18 H9          10.2160     8.9530    -8.9070 hn         1 PBV       0.467500
     19 H10          8.9630     9.8200    -9.7160 hn         1 PBV       0.467500
@<TRIPOS>BOND
     1     1     2 ar  
     2     1     3 1   
     3     1     8 ar  
     4     2     4 ar  
     5     2    10 1   
     6     3     6 1   
     7     3    11 1   
     8     3    12 1   
     9     4     7 ar  
    10     4    13 1   
    11     5     7 ar  
    12     5     8 ar  
    13     5     9 1   
    14     6    14 1   
    15     6    15 1   
    16     6    16 1   
    17     7    17 1   
    18     9    18 1   
    19     9    19 1   
@<TRIPOS>SUBSTRUCTURE
     1 PBV         1 TEMP              0 ****  ****    0 ROOT
