@<TRIPOS>MOLECULE
PBV
   19    19     1     0     0
SMALL
bcc


@<TRIPOS>ATOM
      1 C1           8.6080     5.5300    -8.9130 ca         1 PBV       0.464600
      2 C2           7.4210     5.3790    -9.6130 ca         1 PBV      -0.298300
      3 C4           9.3440     4.3450    -8.3550 c3         1 PBV      -0.127700
      4 C5           6.7830     6.5270   -10.0790 ca         1 PBV      -0.053000
      5 C6           8.5410     7.8200    -9.1170 ca         1 PBV       0.663200
      6 C7           9.2700     4.2900    -6.8300 c3         1 PBV      -0.084100
      7 C8           7.3340     7.7640    -9.8350 ca         1 PBV      -0.315300
      8 N3           9.1520     6.7250    -8.6750 nb         1 PBV      -0.752000
      9 N9           9.1150     9.0200    -8.8070 nv         1 PBV      -0.944500
     10 H1           7.0070     4.3960    -9.7910 ha         1 PBV       0.140000
     11 H2           8.9330     3.4260    -8.7770 hc         1 PBV       0.050200
     12 H3          10.3900     4.3970    -8.6650 hc         1 PBV       0.050200
     13 H4           5.8560     6.4490   -10.6340 ha         1 PBV       0.132000
     14 H5           9.8360     3.4410    -6.4460 hc         1 PBV       0.037700
     15 H6           9.6800     5.1970    -6.3860 hc         1 PBV       0.037700
     16 H7           8.2390     4.1850    -6.4910 hc         1 PBV       0.037700
     17 H8           6.8580     8.6720   -10.1830 ha         1 PBV       0.138000
     18 H9          10.0830     8.9890    -8.5320 hn         1 PBV       0.412300
     19 H10          8.8800     9.8100    -9.3840 hn         1 PBV       0.412300
@<TRIPOS>BOND
     1     1     2 ar  
     2     1     3 1   
     3     1     8 ar  
     4     2     4 ar  
     5     2    10 1   
     6     3     6 1   
     7     3    11 1   
     8     3    12 1   
     9     4     7 ar  
    10     4    13 1   
    11     5     7 ar  
    12     5     8 ar  
    13     5     9 1   
    14     6    14 1   
    15     6    15 1   
    16     6    16 1   
    17     7    17 1   
    18     9    18 1   
    19     9    19 1   
@<TRIPOS>SUBSTRUCTURE
     1 PBV         1 TEMP              0 ****  ****    0 ROOT
