@<TRIPOS>MOLECULE
PBW
   27    27     1     0     0
SMALL
bcc


@<TRIPOS>ATOM
      1 O4          11.6050    11.2450    14.7940 oh         1 PBW      -0.591800
      2 O7           9.8990     9.7490    10.5260 oh         1 PBW      -0.591800
      3 C1          10.8360    11.9140    10.6810 c6         1 PBW       0.119100
      4 C2          11.0740    13.1150    11.5880 c6         1 PBW       0.112100
      5 O2          11.8450    14.0350    10.8490 oh         1 PBW      -0.604800
      6 C3          11.7670    12.7030    12.8770 c6         1 PBW       0.119100
      7 O3          11.9370    13.8710    13.6510 oh         1 PBW      -0.595300
      8 C4          10.9460    11.6450    13.6100 c6         1 PBW       0.142600
      9 C5          10.7500    10.4250    12.7100 c6         1 PBW      -0.092700
     10 C6          10.0310     9.2860    13.4140 c3         1 PBW       0.141400
     11 C7          10.0420    10.8390    11.4090 c6         1 PBW       0.142600
     12 H1          11.3750    11.8580    15.4980 ho         1 PBW       0.410000
     13 HO7          9.1180     9.2500    10.7790 ho         1 PBW       0.410000
     14 H1'1        11.8200    11.4930    10.4120 h1         1 PBW       0.053700
     15 H2          10.0940    13.5510    11.8440 h1         1 PBW       0.053700
     16 HO2         11.9210    14.8460    11.3630 ho         1 PBW       0.426000
     17 H3          12.7430    12.2620    12.6220 h1         1 PBW       0.053700
     18 HO3         12.6290    13.7160    14.3000 ho         1 PBW       0.418000
     19 H4           9.9620    12.0750    13.8490 h1         1 PBW       0.057700
     20 H5          11.7430    10.0390    12.4390 hc         1 PBW       0.073700
     21 HO6          8.2860     8.9690    14.2020 ho         1 PBW       0.407000
     22 H6'2        10.0100     8.4120    12.7510 h1         1 PBW       0.032700
     23 H6'1        10.6110     8.9880    14.2940 h1         1 PBW       0.032700
     24 H7           9.0590    11.2630    11.6590 h1         1 PBW       0.057700
     25 O1          10.1220    12.2890     9.5300 oh         1 PBW      -0.595300
     26 H8          10.5940    13.0190     9.1170 ho         1 PBW       0.418000
     27 O6           8.7290     9.7010    13.7650 oh         1 PBW      -0.610800
@<TRIPOS>BOND
     1     1     8 1   
     2     1    12 1   
     3     2    11 1   
     4     2    13 1   
     5     3     4 1   
     6     3    11 1   
     7     3    14 1   
     8     3    25 1   
     9     4     5 1   
    10     4     6 1   
    11     4    15 1   
    12     5    16 1   
    13     6     7 1   
    14     6     8 1   
    15     6    17 1   
    16     7    18 1   
    17     8     9 1   
    18     8    19 1   
    19     9    10 1   
    20     9    11 1   
    21     9    20 1   
    22    10    22 1   
    23    10    23 1   
    24    10    27 1   
    25    11    24 1   
    26    21    27 1   
    27    25    26 1   
@<TRIPOS>SUBSTRUCTURE
     1 PBW         1 TEMP              0 ****  ****    0 ROOT
