@<TRIPOS>MOLECULE
PBW
   27    27     1     0     0
SMALL
No Charge or Current Charge


@<TRIPOS>ATOM
      1 O4          11.8260    11.4520    14.7900 oh         1 PBW      -0.714000
      2 O7           9.8460     9.5830    10.6570 oh         1 PBW      -0.714000
      3 C1          10.7740    11.8270    10.6310 c6         1 PBW       0.142300
      4 C2          10.9860    13.1200    11.4650 c6         1 PBW       0.135300
      5 O2          11.6650    14.1230    10.6870 oh         1 PBW      -0.727000
      6 C3          11.8110    12.7800    12.7370 c6         1 PBW       0.142300
      7 O3          12.0690    13.9720    13.5030 oh         1 PBW      -0.717500
      8 C4          11.0530    11.7300    13.6080 c6         1 PBW       0.165800
      9 C5          10.7700    10.4210    12.7970 c6         1 PBW      -0.092700
     10 C6          10.0140     9.3520    13.6470 c3         1 PBW       0.164600
     11 C7          10.0120    10.7540    11.4700 c6         1 PBW       0.165800
     12 H1          11.2240    10.9830    15.4150 ho         1 PBW       0.509000
     13 HO7          9.6710     9.9440     9.7530 ho         1 PBW       0.509000
     14 H1'1        11.7670    11.4230    10.3780 h1         1 PBW       0.053700
     15 H2          10.0020    13.4980    11.7830 h1         1 PBW       0.053700
     16 HO2         12.0760    14.7170    11.3640 ho         1 PBW       0.525000
     17 H3          12.7660    12.3320    12.4210 h1         1 PBW       0.053700
     18 HO3         12.3120    13.6380    14.4010 ho         1 PBW       0.517000
     19 H4          10.0860    12.1730    13.8940 h1         1 PBW       0.057700
     20 H5          11.7330     9.9640    12.5330 hc         1 PBW       0.073700
     21 HO6          8.3270     9.0990    14.6160 ho         1 PBW       0.446000
     22 H6'2         9.8140     8.4730    13.0200 h1         1 PBW       0.032700
     23 H6'1        10.6750     9.0160    14.4570 h1         1 PBW       0.032700
     24 H7           9.0250    11.1670    11.7310 h1         1 PBW       0.057700
     25 O1          10.0570    12.1330     9.4210 oh         1 PBW      -0.717500
     26 H8          10.3990    13.0230     9.1570 ho         1 PBW       0.517000
     27 O6           8.7890     9.8590    14.1960 oh         1 PBW      -0.673000
@<TRIPOS>BOND
     1     1     8 1   
     2     1    12 1   
     3     2    11 1   
     4     2    13 1   
     5     3     4 1   
     6     3    11 1   
     7     3    14 1   
     8     3    25 1   
     9     4     5 1   
    10     4     6 1   
    11     4    15 1   
    12     5    16 1   
    13     6     7 1   
    14     6     8 1   
    15     6    17 1   
    16     7    18 1   
    17     8     9 1   
    18     8    19 1   
    19     9    10 1   
    20     9    11 1   
    21     9    20 1   
    22    10    22 1   
    23    10    23 1   
    24    10    27 1   
    25    11    24 1   
    26    21    27 1   
    27    25    26 1   
@<TRIPOS>SUBSTRUCTURE
     1 PBW         1 TEMP              0 ****  ****    0 ROOT
