@<TRIPOS>MOLECULE
PBX
   15    15     1     0     0
SMALL
abcg2


@<TRIPOS>ATOM
      1 BR           2.1610     0.0020     0.0410 br         1 PBX      -0.098100
      2 C4           0.2930     0.2750     0.1000 ca         1 PBX      -0.108900
      3 C3          -0.5580    -0.8280     0.1630 ca         1 PBX       0.108100
      4 O3          -0.1750    -2.1170     0.1860 oh         1 PBX      -0.551100
      5 C2          -1.9390    -0.6190     0.2060 ca         1 PBX       0.081100
      6 O2          -2.8140    -1.6440     0.2670 oh         1 PBX      -0.514100
      7 C1          -2.4510     0.6770     0.1830 ca         1 PBX       0.148100
      8 O1          -3.7920     0.7960     0.2260 oh         1 PBX      -0.506100
      9 C6          -1.5850     1.7620     0.1190 ca         1 PBX      -0.208000
     10 C5          -0.2150     1.5630     0.0780 ca         1 PBX      -0.040000
     11 H1           0.7850    -2.2220     0.1880 ho         1 PBX       0.492000
     12 H2          -2.3440    -2.4860     0.2780 ho         1 PBX       0.478000
     13 H3          -4.0420     1.7260     0.2030 ho         1 PBX       0.463000
     14 H4          -1.9800     2.7710     0.1010 ha         1 PBX       0.123000
     15 H5           0.4480     2.4150     0.0280 ha         1 PBX       0.132000
@<TRIPOS>BOND
     1     1     2 1   
     2     2     3 ar  
     3     2    10 ar  
     4     3     4 1   
     5     3     5 ar  
     6     4    11 1   
     7     5     6 1   
     8     5     7 ar  
     9     6    12 1   
    10     7     8 1   
    11     7     9 ar  
    12     8    13 1   
    13     9    10 ar  
    14     9    14 1   
    15    10    15 1   
@<TRIPOS>SUBSTRUCTURE
     1 PBX         1 TEMP              0 ****  ****    0 ROOT
