@<TRIPOS>MOLECULE
PBX
   15    15     1     0     0
SMALL
No Charge or Current Charge


@<TRIPOS>ATOM
      1 Br           2.1780    -0.0370     0.0490 br         1 PBX      -0.098100
      2 C4           0.2790     0.2290     0.1040 ca         1 PBX      -0.108900
      3 C3          -0.6020    -0.8670     0.1690 ca         1 PBX       0.108100
      4 O3          -0.1110    -2.1470     0.1940 oh         1 PBX      -0.551100
      5 C2          -1.9970    -0.6530     0.2100 ca         1 PBX       0.081100
      6 O2          -2.8320    -1.7410     0.2730 oh         1 PBX      -0.514100
      7 C1          -2.5050     0.6690     0.1840 ca         1 PBX       0.148100
      8 O1          -3.8520     0.9080     0.2220 oh         1 PBX      -0.506100
      9 C6          -1.6180     1.7580     0.1190 ca         1 PBX      -0.208000
     10 C5          -0.2290     1.5400     0.0800 ca         1 PBX      -0.040000
     11 H1           0.8710    -2.0950     0.1590 ho         1 PBX       0.492000
     12 H2          -2.2510    -2.5360     0.2790 ho         1 PBX       0.478000
     13 H3          -3.9970     1.8770     0.1960 ho         1 PBX       0.463000
     14 H4          -1.9960     2.7780     0.0990 ha         1 PBX       0.123000
     15 H5           0.4530     2.3870     0.0290 ha         1 PBX       0.132000
@<TRIPOS>BOND
     1     1     2 1   
     2     2     3 ar  
     3     2    10 ar  
     4     3     4 1   
     5     3     5 ar  
     6     4    11 1   
     7     5     6 1   
     8     5     7 ar  
     9     6    12 1   
    10     7     8 1   
    11     7     9 ar  
    12     8    13 1   
    13     9    10 ar  
    14     9    14 1   
    15    10    15 1   
@<TRIPOS>SUBSTRUCTURE
     1 PBX         1 TEMP              0 ****  ****    0 ROOT
