@<TRIPOS>MOLECULE
PBY
   24    25     1     0     0
SMALL
bcc


@<TRIPOS>ATOM
      1 C2           8.7190     4.6940    -8.3570 ca         1 PBY       0.189600
      2 C3           8.8310     7.0220    -9.2940 ca         1 PBY       0.742200
      3 C11          7.3150     8.0370   -10.6150 ca         1 PBY       0.722900
      4 C12          7.7970     2.0940    -7.7880 ca         1 PBY      -0.154000
      5 C10          9.1460     9.2450   -10.0750 ca         1 PBY       0.737200
      6 C4           9.4620     3.8320    -7.5400 ca         1 PBY      -0.195000
      7 C5           7.5070     4.2390    -8.8860 ca         1 PBY      -0.151000
      8 C6           9.6210     8.1670    -9.3270 ca         1 PBY      -0.522600
      9 C8           8.9950     2.5610    -7.2710 ca         1 PBY       0.060400
     10 C9           7.0690     2.9560    -8.5940 ca         1 PBY      -0.095000
     11 N1           9.2710     5.9480    -8.5740 nu         1 PBY      -0.743300
     12 N14          7.9700     9.1730   -10.7260 nb         1 PBY      -0.810000
     13 N15          9.8430    10.3860   -10.2020 nv         1 PBY      -0.964500
     14 N7           7.6650     6.9530    -9.9440 nb         1 PBY      -0.806000
     15 CL13         9.9450     1.5220    -6.2560 cl         1 PBY      -0.117400
     16 H1           6.3660     7.9810   -11.1390 h5         1 PBY       0.045100
     17 H2           7.4440     1.0960    -7.5710 ha         1 PBY       0.149000
     18 H3          10.4040     4.1620    -7.1180 ha         1 PBY       0.141000
     19 H4           6.9180     4.8800    -9.5190 ha         1 PBY       0.175000
     20 H5          10.5640     8.2230    -8.7980 ha         1 PBY       0.144000
     21 H6           6.1290     2.6200    -9.0120 ha         1 PBY       0.136000
     22 H7          10.1580     6.0950    -8.1180 hn         1 PBY       0.439800
     23 H8           9.4050    11.1810   -10.6350 hn         1 PBY       0.438800
     24 H9          10.6510    10.5590    -9.6310 hn         1 PBY       0.438800
@<TRIPOS>BOND
     1     1     6 ar  
     2     1     7 ar  
     3     1    11 1   
     4     2     8 ar  
     5     2    11 1   
     6     2    14 ar  
     7     3    12 ar  
     8     3    14 ar  
     9     3    16 1   
    10     4     9 ar  
    11     4    10 ar  
    12     4    17 1   
    13     5     8 ar  
    14     5    12 ar  
    15     5    13 1   
    16     6     9 ar  
    17     6    18 1   
    18     7    10 ar  
    19     7    19 1   
    20     8    20 1   
    21     9    15 1   
    22    10    21 1   
    23    11    22 1   
    24    13    23 1   
    25    13    24 1   
@<TRIPOS>SUBSTRUCTURE
     1 PBY         1 TEMP              0 ****  ****    0 ROOT
