@<TRIPOS>MOLECULE
PBY
   24    25     1     0     0
SMALL
No Charge or Current Charge


@<TRIPOS>ATOM
      1 C2           8.7760     4.6420    -8.4060 ca         1 PBY       0.328000
      2 C3           8.8130     7.0550    -9.2860 ca         1 PBY       0.413900
      3 C11          7.0820     8.2800   -10.1460 ca         1 PBY       0.196900
      4 C12          7.8080     2.0610    -7.8080 ca         1 PBY      -0.136000
      5 C10          9.1390     9.2510   -10.1290 ca         1 PBY       0.408900
      6 C4           9.3280     3.9060    -7.3460 ca         1 PBY      -0.177000
      7 C5           7.7480     4.0680    -9.1800 ca         1 PBY      -0.133000
      8 C6           9.6840     8.1150    -9.5390 ca         1 PBY      -0.374000
      9 C8           8.8430     2.6240    -7.0450 ca         1 PBY       0.152000
     10 C9           7.2610     2.7830    -8.8810 ca         1 PBY      -0.077000
     11 N1           9.3010     5.9110    -8.6750 nu         1 PBY      -0.936900
     12 N14          7.8430     9.3530   -10.4400 nb         1 PBY      -0.284000
     13 N15          9.9080    10.3250   -10.4140 nv         1 PBY      -1.074900
     14 N7           7.5030     7.1320    -9.5780 nb         1 PBY      -0.280000
     15 Cl13         9.5360     1.7190    -5.7070 cl         1 PBY      -0.209000
     16 H1           6.0220     8.3470   -10.3890 h5         1 PBY       0.045100
     17 H2           7.4370     1.0670    -7.5720 ha         1 PBY       0.131000
     18 H3          10.1280     4.3280    -6.7460 ha         1 PBY       0.123000
     19 H4           7.3330     4.6040   -10.0270 ha         1 PBY       0.157000
     20 H5          10.7380     8.0550    -9.2930 ha         1 PBY       0.126000
     21 H6           6.4660     2.3470    -9.4830 ha         1 PBY       0.118000
     22 H7          10.2250     6.0570    -8.2720 hn         1 PBY       0.495000
     23 H8           9.4430    11.2010   -10.6400 hn         1 PBY       0.494000
     24 H9          10.8300    10.3950    -9.9900 hn         1 PBY       0.494000
@<TRIPOS>BOND
     1     1     6 ar  
     2     1     7 ar  
     3     1    11 1   
     4     2     8 ar  
     5     2    11 1   
     6     2    14 ar  
     7     3    12 ar  
     8     3    14 ar  
     9     3    16 1   
    10     4     9 ar  
    11     4    10 ar  
    12     4    17 1   
    13     5     8 ar  
    14     5    12 ar  
    15     5    13 1   
    16     6     9 ar  
    17     6    18 1   
    18     7    10 ar  
    19     7    19 1   
    20     8    20 1   
    21     9    15 1   
    22    10    21 1   
    23    11    22 1   
    24    13    23 1   
    25    13    24 1   
@<TRIPOS>SUBSTRUCTURE
     1 PBY         1 TEMP              0 ****  ****    0 ROOT
