@<TRIPOS>MOLECULE
PBZ
   20    20     1     0     0
SMALL
No Charge or Current Charge


@<TRIPOS>ATOM
      1 N2           2.8000     1.1350    -0.4510 nv         1 PBZ      -0.584700
      2 N3           2.8200    -1.0720     0.4300 nv         1 PBZ      -0.568800
      3 C7           2.1380     0.0290    -0.0010 ce         1 PBZ       0.539400
      4 C4           0.6540     0.0240     0.0190 ca         1 PBZ      -0.348900
      5 C2          -1.4670     1.1900     0.3450 ca         1 PBZ      -0.202000
      6 C3          -0.0630     1.2020     0.3270 ca         1 PBZ       0.006000
      7 C5          -0.0630    -1.1590    -0.2670 ca         1 PBZ       0.006000
      8 C6          -1.4680    -1.1560    -0.2460 ca         1 PBZ      -0.202000
      9 C1          -2.1670     0.0150     0.0590 ca         1 PBZ       0.410000
     10 N1          -3.5320     0.0110     0.0770 nv         1 PBZ      -1.071000
     11 HN21         2.2610     1.8210    -0.9620 hn         1 PBZ       0.372750
     12 HN22         3.7820     1.0520    -0.6740 hn         1 PBZ       0.372750
     13 HN31         2.3020    -1.7610     0.9560 hn         1 PBZ       0.372750
     14 HN32         3.8080    -0.9810     0.6240 hn         1 PBZ       0.372750
     15 H2          -2.0080     2.1000     0.5880 ha         1 PBZ       0.141000
     16 H3           0.4600     2.1270     0.5650 ha         1 PBZ       0.120000
     17 H5           0.4590    -2.0810    -0.5190 ha         1 PBZ       0.120000
     18 H6          -2.0090    -2.0710    -0.4690 ha         1 PBZ       0.141000
     19 HN11        -4.0290    -0.7800    -0.3300 hn         1 PBZ       0.502000
     20 HN12        -4.0320     0.8980     0.0930 hn         1 PBZ       0.502000
@<TRIPOS>BOND
     1     1     3 2   
     2     1    11 1   
     3     1    12 1   
     4     2     3 1   
     5     2    13 1   
     6     2    14 1   
     7     3     4 1   
     8     4     6 ar  
     9     4     7 ar  
    10     5     6 ar  
    11     5     9 ar  
    12     5    15 1   
    13     6    16 1   
    14     7     8 ar  
    15     7    17 1   
    16     8     9 ar  
    17     8    18 1   
    18     9    10 1   
    19    10    19 1   
    20    10    20 1   
@<TRIPOS>SUBSTRUCTURE
     1 PBZ         1 TEMP              0 ****  ****    0 ROOT
