@<TRIPOS>MOLECULE
PBZ
   20    20     1     0     0
SMALL
abcg2


@<TRIPOS>ATOM
      1 N2           2.7590     1.1060    -0.3840 nv         1 PBZ      -0.584700
      2 N3           2.7710    -1.0450     0.3760 nv         1 PBZ      -0.568800
      3 C7           2.1080     0.0290     0.0020 ce         1 PBZ       0.539400
      4 C4           0.6530     0.0260     0.0160 ca         1 PBZ      -0.348900
      5 C2          -1.4400     1.2090     0.2560 ca         1 PBZ      -0.202000
      6 C3          -0.0660     1.2070     0.2370 ca         1 PBZ       0.006000
      7 C5          -0.0650    -1.1580    -0.1940 ca         1 PBZ       0.006000
      8 C6          -1.4390    -1.1650    -0.1880 ca         1 PBZ      -0.202000
      9 C1          -2.1640     0.0200     0.0420 ca         1 PBZ       0.410000
     10 N1          -3.5120     0.0110     0.0870 nv         1 PBZ      -1.071000
     11 HN21         2.2770     1.8720    -0.8230 hn         1 PBZ       0.372750
     12 HN22         3.7630     1.1720    -0.3300 hn         1 PBZ       0.372750
     13 HN31         2.3010    -1.8120     0.8270 hn         1 PBZ       0.372750
     14 HN32         3.7740    -1.1080     0.3000 hn         1 PBZ       0.372750
     15 H2          -1.9720     2.1320     0.4490 ha         1 PBZ       0.141000
     16 H3           0.4520     2.1380     0.4310 ha         1 PBZ       0.120000
     17 H5           0.4530    -2.0870    -0.4000 ha         1 PBZ       0.120000
     18 H6          -1.9710    -2.0900    -0.3730 ha         1 PBZ       0.141000
     19 HN11        -4.0180    -0.7950    -0.2350 hn         1 PBZ       0.502000
     20 HN12        -4.0180     0.8800     0.0660 hn         1 PBZ       0.502000
@<TRIPOS>BOND
     1     1     3 2   
     2     1    11 1   
     3     1    12 1   
     4     2     3 1   
     5     2    13 1   
     6     2    14 1   
     7     3     4 1   
     8     4     6 ar  
     9     4     7 ar  
    10     5     6 ar  
    11     5     9 ar  
    12     5    15 1   
    13     6    16 1   
    14     7     8 ar  
    15     7    17 1   
    16     8     9 ar  
    17     8    18 1   
    18     9    10 1   
    19    10    19 1   
    20    10    20 1   
@<TRIPOS>SUBSTRUCTURE
     1 PBZ         1 TEMP              0 ****  ****    0 ROOT
