@<TRIPOS>MOLECULE
PC1
  142   141     1     0     0
SMALL
No Charge or Current Charge


@<TRIPOS>ATOM
      1 O12         -5.8960    12.2870    -8.2240 o          1 PC1      -0.778000
      2 P           -7.3690    12.2410    -8.4430 p5         1 PC1       1.369800
      3 O14         -7.9880    13.5970    -8.3900 o          1 PC1      -0.778000
      4 O13         -7.7270    11.4800    -9.8200 os         1 PC1      -0.578400
      5 C11         -6.9460    10.3750   -10.3120 c3         1 PC1       0.223600
      6 C12         -6.8450     9.2520    -9.2460 c3         1 PC1       0.075600
      7 N           -6.1070     7.9520    -9.6160 n4         1 PC1      -0.493000
      8 C13         -4.6490     8.2550    -9.9930 c3         1 PC1       0.075567
      9 C14         -6.1200     7.0140    -8.4030 c3         1 PC1       0.075567
     10 C15         -6.8090     7.2530   -10.7900 c3         1 PC1       0.075567
     11 O11         -8.0880    11.2290    -7.4190 os         1 PC1      -0.596400
     12 C1          -9.5200    11.2610    -7.2970 c3         1 PC1       0.201600
     13 C2          -9.9810    10.1610    -6.2970 c3         1 PC1       0.170300
     14 O21         -9.4640    10.4510    -4.9740 os         1 PC1      -0.429100
     15 C21        -10.0150    11.4770    -4.2530 c          1 PC1       0.602100
     16 O22        -10.9720    12.1480    -4.6150 o          1 PC1      -0.494000
     17 C22         -9.3060    11.6710    -2.9120 c3         1 PC1      -0.136400
     18 C23         -8.2370    12.7850    -3.0000 c3         1 PC1      -0.068400
     19 C24         -7.5010    13.0190    -1.6630 c3         1 PC1      -0.075400
     20 C25         -6.4420    14.1400    -1.7430 c3         1 PC1      -0.074400
     21 C26         -5.7150    14.3800    -0.4010 c3         1 PC1      -0.074400
     22 C27         -4.6640    15.5090    -0.4740 c3         1 PC1      -0.074400
     23 C28         -3.9430    15.7500     0.8700 c3         1 PC1      -0.074400
     24 C29         -2.8990    16.8860     0.8020 c3         1 PC1      -0.074400
     25 C2A         -2.1820    17.1290     2.1480 c3         1 PC1      -0.074400
     26 C2B         -1.1430    18.2690     2.0830 c3         1 PC1      -0.074400
     27 C2C         -0.4310    18.5160     3.4310 c3         1 PC1      -0.074400
     28 C2D          0.6080    19.6570     3.3660 c3         1 PC1      -0.074400
     29 C2E          1.3190    19.9070     4.7140 c3         1 PC1      -0.074400
     30 C2F          2.3560    21.0490     4.6460 c3         1 PC1      -0.074400
     31 C2G          3.0700    21.3010     5.9930 c3         1 PC1      -0.075400
     32 C2H          4.1050    22.4450     5.9230 c3         1 PC1      -0.075400
     33 C2I          4.8180    22.6980     7.2650 c3         1 PC1      -0.088100
     34 C3          -9.4920     8.7500    -6.7020 c3         1 PC1       0.168600
     35 O31        -10.1500     7.7800    -5.8630 os         1 PC1      -0.436100
     36 C31         -9.8410     6.4590    -6.0450 c          1 PC1       0.611100
     37 O32         -9.0310     6.0450    -6.8630 o          1 PC1      -0.541000
     38 C32        -10.5730     5.5630    -5.0460 c3         1 PC1      -0.140400
     39 C33         -9.7270     5.3380    -3.7710 c3         1 PC1      -0.066400
     40 C34        -10.4420     4.4620    -2.7190 c3         1 PC1      -0.077400
     41 C35         -9.5990     4.2430    -1.4430 c3         1 PC1      -0.073400
     42 C36        -10.3190     3.3770    -0.3860 c3         1 PC1      -0.075400
     43 C37         -9.4790     3.1610     0.8930 c3         1 PC1      -0.073400
     44 C38        -10.2010     2.2990     1.9520 c3         1 PC1      -0.075400
     45 C39         -9.3620     2.0840     3.2310 c3         1 PC1      -0.073400
     46 C3A        -10.0850     1.2220     4.2890 c3         1 PC1      -0.074400
     47 C3B         -9.2460     1.0020     5.5670 c3         1 PC1      -0.073400
     48 C3C         -9.9690     0.1330     6.6200 c3         1 PC1      -0.074400
     49 C3D         -9.1300    -0.0920     7.8980 c3         1 PC1      -0.074400
     50 C3E         -9.8500    -0.9710     8.9440 c3         1 PC1      -0.074400
     51 C3F         -9.0110    -1.2000    10.2210 c3         1 PC1      -0.074400
     52 C3G         -9.7280    -2.0860    11.2640 c3         1 PC1      -0.076400
     53 C3H         -8.8880    -2.3180    12.5390 c3         1 PC1      -0.075400
     54 C3I         -9.5990    -3.2060    13.5770 c3         1 PC1      -0.088100
     55 H111        -5.9380    10.7120   -10.5820 h1         1 PC1       0.039700
     56 H112        -7.4130     9.9680   -11.2170 h1         1 PC1       0.039700
     57 H121        -7.8600     8.9760    -8.9580 hx         1 PC1       0.093700
     58 H122        -6.3480     9.6610    -8.3640 hx         1 PC1       0.093700
     59 H131        -4.1570     8.7570    -9.1580 hx         1 PC1       0.093589
     60 H132        -4.1330     7.3170   -10.2130 hx         1 PC1       0.093589
     61 H133        -4.6270     8.8980   -10.8750 hx         1 PC1       0.093589
     62 H141        -5.5910     6.0920    -8.6550 hx         1 PC1       0.093589
     63 H142        -5.6260     7.5030    -7.5610 hx         1 PC1       0.093589
     64 H143        -7.1530     6.7810    -8.1400 hx         1 PC1       0.093589
     65 H151        -7.8450     7.0430   -10.5170 hx         1 PC1       0.093589
     66 H152        -6.7830     7.9010   -11.6690 hx         1 PC1       0.093589
     67 H153        -6.2910     6.3170   -11.0120 hx         1 PC1       0.093589
     68 H11         -9.8610    12.2450    -6.9530 h1         1 PC1       0.043200
     69 H12         -9.9900    11.0710    -8.2710 h1         1 PC1       0.043200
     70 H2         -11.0790    10.1420    -6.2870 h1         1 PC1       0.065700
     71 H221        -8.7930    10.7410    -2.6390 hc         1 PC1       0.070700
     72 H222       -10.0460    11.9420    -2.1500 hc         1 PC1       0.070700
     73 H231        -7.5050    12.5220    -3.7760 hc         1 PC1       0.055200
     74 H232        -8.7160    13.7200    -3.3170 hc         1 PC1       0.055200
     75 H241        -7.0150    12.0860    -1.3500 hc         1 PC1       0.036200
     76 H242        -8.2350    13.2730    -0.8880 hc         1 PC1       0.036200
     77 H251        -5.7030    13.8840    -2.5120 hc         1 PC1       0.040700
     78 H252        -6.9270    15.0720    -2.0610 hc         1 PC1       0.040700
     79 H261        -6.4560    14.6280     0.3690 hc         1 PC1       0.036200
     80 H262        -5.2250    13.4510    -0.0860 hc         1 PC1       0.036200
     81 H271        -5.1550    16.4380    -0.7920 hc         1 PC1       0.038200
     82 H272        -3.9210    15.2610    -1.2430 hc         1 PC1       0.038200
     83 H281        -4.6880    15.9920     1.6390 hc         1 PC1       0.036700
     84 H282        -3.4480    14.8230     1.1840 hc         1 PC1       0.036700
     85 H291        -3.3950    17.8130     0.4860 hc         1 PC1       0.037700
     86 H292        -2.1530    16.6440     0.0350 hc         1 PC1       0.037700
     87 H2A1        -2.9290    17.3660     2.9160 hc         1 PC1       0.036200
     88 H2A2        -1.6830    16.2040     2.4620 hc         1 PC1       0.036200
     89 H2B1        -0.3930    18.0300     1.3180 hc         1 PC1       0.037200
     90 H2B2        -1.6420    19.1930     1.7650 hc         1 PC1       0.037200
     91 H2C1         0.0690    17.5920     3.7500 hc         1 PC1       0.036700
     92 H2C2        -1.1810    18.7550     4.1960 hc         1 PC1       0.036700
     93 H2D1         1.3580    19.4180     2.6020 hc         1 PC1       0.037200
     94 H2D2         0.1080    20.5810     3.0470 hc         1 PC1       0.037200
     95 H2E1         0.5690    20.1460     5.4780 hc         1 PC1       0.036700
     96 H2E2         1.8190    18.9840     5.0340 hc         1 PC1       0.036700
     97 H2F1         3.1060    20.8090     3.8810 hc         1 PC1       0.036700
     98 H2F2         1.8550    21.9710     4.3260 hc         1 PC1       0.036700
     99 H2G1         2.3210    21.5390     6.7590 hc         1 PC1       0.036700
    100 H2G2         3.5730    20.3800     6.3120 hc         1 PC1       0.036700
    101 H2H1         3.6040    23.3690     5.6060 hc         1 PC1       0.036700
    102 H2H2         4.8560    22.2100     5.1590 hc         1 PC1       0.036700
    103 H2I1         5.5410    23.5170     7.1650 hc         1 PC1       0.031367
    104 H2I2         5.3590    21.8020     7.5920 hc         1 PC1       0.031367
    105 H2I3         4.0960    22.9710     8.0440 hc         1 PC1       0.031367
    106 H31         -8.4010     8.6940    -6.5850 h1         1 PC1       0.050700
    107 H32         -9.7360     8.5710    -7.7570 h1         1 PC1       0.050700
    108 H321       -10.7830     4.5950    -5.5160 hc         1 PC1       0.076200
    109 H322       -11.5040     6.0570    -4.7420 hc         1 PC1       0.076200
    110 H331        -8.7760     4.8660    -4.0480 hc         1 PC1       0.050200
    111 H332        -9.4830     6.3100    -3.3250 hc         1 PC1       0.050200
    112 H341       -10.6820     3.4880    -3.1630 hc         1 PC1       0.040200
    113 H342       -11.3940     4.9330    -2.4450 hc         1 PC1       0.040200
    114 H351        -8.6500     3.7660    -1.7150 hc         1 PC1       0.038700
    115 H352        -9.3540     5.2180    -1.0020 hc         1 PC1       0.038700
    116 H361       -11.2690     3.8540    -0.1160 hc         1 PC1       0.038700
    117 H362       -10.5630     2.4010    -0.8250 hc         1 PC1       0.038700
    118 H371        -9.2320     4.1360     1.3300 hc         1 PC1       0.037200
    119 H372        -8.5300     2.6800     0.6230 hc         1 PC1       0.037200
    120 H381       -11.1510     2.7800     2.2210 hc         1 PC1       0.038200
    121 H382       -10.4490     1.3240     1.5150 hc         1 PC1       0.038200
    122 H391        -9.1150     3.0590     3.6680 hc         1 PC1       0.037200
    123 H392        -8.4130     1.6030     2.9620 hc         1 PC1       0.037200
    124 H3A1       -11.0330     1.7040     4.5590 hc         1 PC1       0.037200
    125 H3A2       -10.3340     0.2480     3.8500 hc         1 PC1       0.037200
    126 H3B1        -8.2960     0.5250     5.2970 hc         1 PC1       0.037200
    127 H3B2        -9.0010     1.9760     6.0100 hc         1 PC1       0.037200
    128 H3C1       -10.2150    -0.8390     6.1750 hc         1 PC1       0.037200
    129 H3C2       -10.9180     0.6110     6.8920 hc         1 PC1       0.037200
    130 H3D1        -8.1780    -0.5640     7.6250 hc         1 PC1       0.036700
    131 H3D2        -8.8900     0.8800     8.3470 hc         1 PC1       0.036700
    132 H3E1       -10.8020    -0.4980     9.2190 hc         1 PC1       0.037200
    133 H3E2       -10.0930    -1.9410     8.4940 hc         1 PC1       0.037200
    134 H3F1        -8.0580    -1.6680     9.9450 hc         1 PC1       0.036700
    135 H3F2        -8.7730    -0.2300    10.6750 hc         1 PC1       0.036700
    136 H3G1       -10.6810    -1.6180    11.5400 hc         1 PC1       0.037200
    137 H3G2        -9.9670    -3.0560    10.8090 hc         1 PC1       0.037200
    138 H3H1        -8.6510    -1.3500    13.0000 hc         1 PC1       0.036700
    139 H3H2        -7.9330    -2.7840    12.2660 hc         1 PC1       0.036700
    140 H3I1        -8.9660    -3.3410    14.4620 hc         1 PC1       0.031367
    141 H3I2        -9.8180    -4.1950    13.1570 hc         1 PC1       0.031367
    142 H3I3       -10.5440    -2.7490    13.8980 hc         1 PC1       0.031367
@<TRIPOS>BOND
     1     1     2 1   
     2     2     3 1   
     3     2     4 1   
     4     2    11 1   
     5     4     5 1   
     6     5     6 1   
     7     5    55 1   
     8     5    56 1   
     9     6     7 1   
    10     6    57 1   
    11     6    58 1   
    12     7     8 1   
    13     7     9 1   
    14     7    10 1   
    15     8    59 1   
    16     8    60 1   
    17     8    61 1   
    18     9    62 1   
    19     9    63 1   
    20     9    64 1   
    21    10    65 1   
    22    10    66 1   
    23    10    67 1   
    24    11    12 1   
    25    12    13 1   
    26    12    68 1   
    27    12    69 1   
    28    13    14 1   
    29    13    34 1   
    30    13    70 1   
    31    14    15 1   
    32    15    16 2   
    33    15    17 1   
    34    17    18 1   
    35    17    71 1   
    36    17    72 1   
    37    18    19 1   
    38    18    73 1   
    39    18    74 1   
    40    19    20 1   
    41    19    75 1   
    42    19    76 1   
    43    20    21 1   
    44    20    77 1   
    45    20    78 1   
    46    21    22 1   
    47    21    79 1   
    48    21    80 1   
    49    22    23 1   
    50    22    81 1   
    51    22    82 1   
    52    23    24 1   
    53    23    83 1   
    54    23    84 1   
    55    24    25 1   
    56    24    85 1   
    57    24    86 1   
    58    25    26 1   
    59    25    87 1   
    60    25    88 1   
    61    26    27 1   
    62    26    89 1   
    63    26    90 1   
    64    27    28 1   
    65    27    91 1   
    66    27    92 1   
    67    28    29 1   
    68    28    93 1   
    69    28    94 1   
    70    29    30 1   
    71    29    95 1   
    72    29    96 1   
    73    30    31 1   
    74    30    97 1   
    75    30    98 1   
    76    31    32 1   
    77    31    99 1   
    78    31   100 1   
    79    32    33 1   
    80    32   101 1   
    81    32   102 1   
    82    33   103 1   
    83    33   104 1   
    84    33   105 1   
    85    34    35 1   
    86    34   106 1   
    87    34   107 1   
    88    35    36 1   
    89    36    37 2   
    90    36    38 1   
    91    38    39 1   
    92    38   108 1   
    93    38   109 1   
    94    39    40 1   
    95    39   110 1   
    96    39   111 1   
    97    40    41 1   
    98    40   112 1   
    99    40   113 1   
   100    41    42 1   
   101    41   114 1   
   102    41   115 1   
   103    42    43 1   
   104    42   116 1   
   105    42   117 1   
   106    43    44 1   
   107    43   118 1   
   108    43   119 1   
   109    44    45 1   
   110    44   120 1   
   111    44   121 1   
   112    45    46 1   
   113    45   122 1   
   114    45   123 1   
   115    46    47 1   
   116    46   124 1   
   117    46   125 1   
   118    47    48 1   
   119    47   126 1   
   120    47   127 1   
   121    48    49 1   
   122    48   128 1   
   123    48   129 1   
   124    49    50 1   
   125    49   130 1   
   126    49   131 1   
   127    50    51 1   
   128    50   132 1   
   129    50   133 1   
   130    51    52 1   
   131    51   134 1   
   132    51   135 1   
   133    52    53 1   
   134    52   136 1   
   135    52   137 1   
   136    53    54 1   
   137    53   138 1   
   138    53   139 1   
   139    54   140 1   
   140    54   141 1   
   141    54   142 1   
@<TRIPOS>SUBSTRUCTURE
     1 PC1         1 TEMP              0 ****  ****    0 ROOT
