@<TRIPOS>MOLECULE
PC1
  142   141     1     0     0
SMALL
bcc


@<TRIPOS>ATOM
      1 O12         -5.1840     9.9790   -10.1570 o          1 PC1      -0.778000
      2 P           -6.5710    10.5300   -10.1490 p5         1 PC1       1.369800
      3 O14         -6.9430    11.8410   -10.7530 o          1 PC1      -0.778000
      4 O13         -7.6060     9.4400   -10.8340 os         1 PC1      -0.555200
      5 C11         -7.4400     8.0690   -10.5630 c3         1 PC1       0.200400
      6 C12         -8.8300     7.4700   -10.7230 c3         1 PC1       0.103800
      7 N           -8.9090     5.9810   -10.5640 n4         1 PC1      -0.605800
      8 C13         -8.3960     5.5540    -9.2330 c3         1 PC1       0.103767
      9 C14        -10.3450     5.5910   -10.6710 c3         1 PC1       0.103767
     10 C15         -8.1450     5.2870   -11.6390 c3         1 PC1       0.103767
     11 O11         -7.0500    10.4680    -8.5790 os         1 PC1      -0.573200
     12 C1          -8.2820    11.0470    -8.2040 c3         1 PC1       0.178400
     13 C2          -8.6710    10.5430    -6.8290 c3         1 PC1       0.147100
     14 O21         -7.6850    10.8820    -5.8500 os         1 PC1      -0.405900
     15 C21         -7.7410    12.0720    -5.2550 c          1 PC1       0.651100
     16 O22         -8.5430    12.9230    -5.5450 o          1 PC1      -0.543000
     17 C22         -6.6990    12.1890    -4.1770 c3         1 PC1      -0.136400
     18 C23         -6.5210    13.6000    -3.6410 c3         1 PC1      -0.068400
     19 C24         -5.4920    13.6490    -2.5180 c3         1 PC1      -0.075400
     20 C25         -5.2490    15.0560    -1.9880 c3         1 PC1      -0.074400
     21 C26         -4.2300    15.0950    -0.8550 c3         1 PC1      -0.074400
     22 C27         -3.9420    16.5000    -0.3420 c3         1 PC1      -0.074400
     23 C28         -2.9200    16.5250     0.7880 c3         1 PC1      -0.074400
     24 C29         -2.5990    17.9270     1.2880 c3         1 PC1      -0.074400
     25 C2A         -1.5700    17.9410     2.4120 c3         1 PC1      -0.074400
     26 C2B         -1.2230    19.3420     2.9010 c3         1 PC1      -0.074400
     27 C2C         -0.1850    19.3480     4.0170 c3         1 PC1      -0.074400
     28 C2D          0.1810    20.7460     4.4970 c3         1 PC1      -0.074400
     29 C2E          1.2270    20.7470     5.6060 c3         1 PC1      -0.074400
     30 C2F          1.6070    22.1450     6.0780 c3         1 PC1      -0.074400
     31 C2G          2.6580    22.1430     7.1810 c3         1 PC1      -0.075400
     32 C2H          3.0480    23.5400     7.6480 c3         1 PC1      -0.075400
     33 C2I          4.1030    23.5270     8.7460 c3         1 PC1      -0.088100
     34 C3          -8.7980     9.0350    -6.7980 c3         1 PC1       0.145400
     35 O31         -9.2630     8.6790    -5.5000 os         1 PC1      -0.412900
     36 C31         -9.3750     7.3880    -5.2030 c          1 PC1       0.660100
     37 O32         -9.1480     6.5060    -5.9940 o          1 PC1      -0.590000
     38 C32         -9.8210     7.1870    -3.7820 c3         1 PC1      -0.140400
     39 C33         -9.5520     5.7880    -3.2480 c3         1 PC1      -0.066400
     40 C34         -9.9320     5.6710    -1.7770 c3         1 PC1      -0.077400
     41 C35         -9.6160     4.3070    -1.1770 c3         1 PC1      -0.073400
     42 C36         -9.9420     4.2300     0.3090 c3         1 PC1      -0.075400
     43 C37         -9.5950     2.8890     0.9440 c3         1 PC1      -0.073400
     44 C38         -9.8940     2.8480     2.4380 c3         1 PC1      -0.075400
     45 C39         -9.5400     1.5200     3.0960 c3         1 PC1      -0.073400
     46 C3A         -9.8250     1.5050     4.5930 c3         1 PC1      -0.074400
     47 C3B         -9.4760     0.1850     5.2680 c3         1 PC1      -0.073400
     48 C3C         -9.7550     0.1900     6.7660 c3         1 PC1      -0.074400
     49 C3D         -9.4170    -1.1250     7.4550 c3         1 PC1      -0.074400
     50 C3E         -9.6910    -1.1020     8.9540 c3         1 PC1      -0.074400
     51 C3F         -9.3600    -2.4160     9.6510 c3         1 PC1      -0.074400
     52 C3G         -9.6320    -2.3820    11.1500 c3         1 PC1      -0.076400
     53 C3H         -9.3030    -3.6930    11.8550 c3         1 PC1      -0.075400
     54 C3I         -9.5800    -3.6420    13.3520 c3         1 PC1      -0.088100
     55 H111        -7.0600     7.8920    -9.5530 h1         1 PC1       0.039700
     56 H112        -6.7260     7.6230   -11.2610 h1         1 PC1       0.039700
     57 H121        -9.2230     7.6980   -11.7140 hx         1 PC1       0.093700
     58 H122        -9.5070     7.9020    -9.9850 hx         1 PC1       0.093700
     59 H131        -8.9110     6.1010    -8.4470 hx         1 PC1       0.093589
     60 H132        -8.5810     4.4900    -9.1140 hx         1 PC1       0.093589
     61 H133        -7.3280     5.7370    -9.1690 hx         1 PC1       0.093589
     62 H141       -10.4280     4.5130   -10.5670 hx         1 PC1       0.093589
     63 H142       -10.9080     6.0790    -9.8800 hx         1 PC1       0.093589
     64 H143       -10.7290     5.8990   -11.6400 hx         1 PC1       0.093589
     65 H151        -8.4910     5.6380   -12.6070 hx         1 PC1       0.093589
     66 H152        -7.0840     5.4870   -11.5300 hx         1 PC1       0.093589
     67 H153        -8.3130     4.2170   -11.5520 hx         1 PC1       0.093589
     68 H11         -8.2150    12.1380    -8.1930 h1         1 PC1       0.043200
     69 H12         -9.0910    10.7850    -8.8950 h1         1 PC1       0.043200
     70 H2          -9.6330    10.9940    -6.5690 h1         1 PC1       0.065700
     71 H221        -5.7510    11.7990    -4.5590 hc         1 PC1       0.070700
     72 H222        -6.9900    11.5090    -3.3680 hc         1 PC1       0.070700
     73 H231        -6.2090    14.2650    -4.4520 hc         1 PC1       0.055200
     74 H232        -7.4770    13.9840    -3.2760 hc         1 PC1       0.055200
     75 H241        -4.5450    13.2290    -2.8730 hc         1 PC1       0.036200
     76 H242        -5.8210    13.0030    -1.6960 hc         1 PC1       0.036200
     77 H251        -4.9060    15.6970    -2.8080 hc         1 PC1       0.040700
     78 H252        -6.1950    15.4850    -1.6410 hc         1 PC1       0.040700
     79 H261        -4.5860    14.4720    -0.0270 hc         1 PC1       0.036200
     80 H262        -3.2950    14.6380    -1.1970 hc         1 PC1       0.036200
     81 H271        -4.8750    16.9620     0.0010 hc         1 PC1       0.038200
     82 H272        -3.5830    17.1210    -1.1700 hc         1 PC1       0.038200
     83 H281        -3.2880    15.9170     1.6230 hc         1 PC1       0.036700
     84 H282        -1.9970    16.0430     0.4480 hc         1 PC1       0.036700
     85 H291        -3.5200    18.4120     1.6330 hc         1 PC1       0.037700
     86 H292        -2.2320    18.5340     0.4530 hc         1 PC1       0.037700
     87 H2A1        -1.9420    17.3450     3.2520 hc         1 PC1       0.036200
     88 H2A2        -0.6560    17.4420     2.0690 hc         1 PC1       0.036200
     89 H2B1        -0.8530    19.9380     2.0590 hc         1 PC1       0.037200
     90 H2B2        -2.1340    19.8420     3.2500 hc         1 PC1       0.037200
     91 H2C1         0.7200    18.8360     3.6700 hc         1 PC1       0.036700
     92 H2C2        -0.5580    18.7600     4.8630 hc         1 PC1       0.036700
     93 H2D1         0.5510    21.3340     3.6500 hc         1 PC1       0.037200
     94 H2D2        -0.7210    21.2580     4.8490 hc         1 PC1       0.037200
     95 H2E1         0.8540    20.1660     6.4570 hc         1 PC1       0.036700
     96 H2E2         2.1250    20.2270     5.2550 hc         1 PC1       0.036700
     97 H2F1         1.9760    22.7270     5.2260 hc         1 PC1       0.036700
     98 H2F2         0.7100    22.6650     6.4320 hc         1 PC1       0.036700
     99 H2G1         2.2870    21.5670     8.0360 hc         1 PC1       0.036700
    100 H2G2         3.5530    21.6180     6.8270 hc         1 PC1       0.036700
    101 H2H1         2.1560    24.0650     8.0040 hc         1 PC1       0.036700
    102 H2H2         3.4160    24.1170     6.7930 hc         1 PC1       0.036700
    103 H2I1         4.3660    24.5370     9.0620 hc         1 PC1       0.031367
    104 H2I2         5.0180    23.0380     8.4080 hc         1 PC1       0.031367
    105 H2I3         3.7490    22.9880     9.6270 hc         1 PC1       0.031367
    106 H31         -7.8400     8.5530    -7.0040 h1         1 PC1       0.050700
    107 H32         -9.5140     8.7220    -7.5620 h1         1 PC1       0.050700
    108 H321       -10.8930     7.4100    -3.7380 hc         1 PC1       0.076200
    109 H322        -9.3380     7.9380    -3.1540 hc         1 PC1       0.076200
    110 H331       -10.1030     5.0480    -3.8330 hc         1 PC1       0.050200
    111 H332        -8.4910     5.5490    -3.3650 hc         1 PC1       0.050200
    112 H341       -11.0000     5.8840    -1.6570 hc         1 PC1       0.040200
    113 H342        -9.4040     6.4430    -1.2080 hc         1 PC1       0.040200
    114 H351       -10.1680     3.5290    -1.7150 hc         1 PC1       0.038700
    115 H352        -8.5540     4.0830    -1.3260 hc         1 PC1       0.038700
    116 H361        -9.4040     5.0260     0.8350 hc         1 PC1       0.038700
    117 H362       -11.0080     4.4380     0.4580 hc         1 PC1       0.038700
    118 H371        -8.5340     2.6730     0.7810 hc         1 PC1       0.037200
    119 H372       -10.1480     2.0890     0.4390 hc         1 PC1       0.037200
    120 H381        -9.3450     3.6550     2.9360 hc         1 PC1       0.038200
    121 H382       -10.9560     3.0610     2.6000 hc         1 PC1       0.038200
    122 H391        -8.4790     1.3010     2.9280 hc         1 PC1       0.037200
    123 H392       -10.0970     0.7110     2.6110 hc         1 PC1       0.037200
    124 H3A1        -9.2670     2.3160     5.0740 hc         1 PC1       0.037200
    125 H3A2       -10.8850     1.7290     4.7600 hc         1 PC1       0.037200
    126 H3B1       -10.0410    -0.6270     4.7950 hc         1 PC1       0.037200
    127 H3B2        -8.4190    -0.0440     5.0980 hc         1 PC1       0.037200
    128 H3C1       -10.8120     0.4270     6.9350 hc         1 PC1       0.037200
    129 H3C2        -9.1880     1.0010     7.2360 hc         1 PC1       0.037200
    130 H3D1        -9.9900    -1.9370     6.9920 hc         1 PC1       0.036700
    131 H3D2        -8.3620    -1.3670     7.2830 hc         1 PC1       0.036700
    132 H3E1        -9.1140    -0.2920     9.4140 hc         1 PC1       0.037200
    133 H3E2       -10.7450    -0.8560     9.1240 hc         1 PC1       0.037200
    134 H3F1        -9.9390    -3.2270     9.1940 hc         1 PC1       0.036700
    135 H3F2        -8.3060    -2.6650     9.4800 hc         1 PC1       0.036700
    136 H3G1        -9.0520    -1.5710    11.6050 hc         1 PC1       0.037200
    137 H3G2       -10.6850    -2.1330    11.3210 hc         1 PC1       0.037200
    138 H3H1        -8.2500    -3.9400    11.6850 hc         1 PC1       0.036700
    139 H3H2        -9.8810    -4.5030    11.3990 hc         1 PC1       0.036700
    140 H3I1        -9.3410    -4.5890    13.8390 hc         1 PC1       0.031367
    141 H3I2       -10.6310    -3.4230    13.5490 hc         1 PC1       0.031367
    142 H3I3        -8.9860    -2.8620    13.8330 hc         1 PC1       0.031367
@<TRIPOS>BOND
     1     1     2 1   
     2     2     3 1   
     3     2     4 1   
     4     2    11 1   
     5     4     5 1   
     6     5     6 1   
     7     5    55 1   
     8     5    56 1   
     9     6     7 1   
    10     6    57 1   
    11     6    58 1   
    12     7     8 1   
    13     7     9 1   
    14     7    10 1   
    15     8    59 1   
    16     8    60 1   
    17     8    61 1   
    18     9    62 1   
    19     9    63 1   
    20     9    64 1   
    21    10    65 1   
    22    10    66 1   
    23    10    67 1   
    24    11    12 1   
    25    12    13 1   
    26    12    68 1   
    27    12    69 1   
    28    13    14 1   
    29    13    34 1   
    30    13    70 1   
    31    14    15 1   
    32    15    16 2   
    33    15    17 1   
    34    17    18 1   
    35    17    71 1   
    36    17    72 1   
    37    18    19 1   
    38    18    73 1   
    39    18    74 1   
    40    19    20 1   
    41    19    75 1   
    42    19    76 1   
    43    20    21 1   
    44    20    77 1   
    45    20    78 1   
    46    21    22 1   
    47    21    79 1   
    48    21    80 1   
    49    22    23 1   
    50    22    81 1   
    51    22    82 1   
    52    23    24 1   
    53    23    83 1   
    54    23    84 1   
    55    24    25 1   
    56    24    85 1   
    57    24    86 1   
    58    25    26 1   
    59    25    87 1   
    60    25    88 1   
    61    26    27 1   
    62    26    89 1   
    63    26    90 1   
    64    27    28 1   
    65    27    91 1   
    66    27    92 1   
    67    28    29 1   
    68    28    93 1   
    69    28    94 1   
    70    29    30 1   
    71    29    95 1   
    72    29    96 1   
    73    30    31 1   
    74    30    97 1   
    75    30    98 1   
    76    31    32 1   
    77    31    99 1   
    78    31   100 1   
    79    32    33 1   
    80    32   101 1   
    81    32   102 1   
    82    33   103 1   
    83    33   104 1   
    84    33   105 1   
    85    34    35 1   
    86    34   106 1   
    87    34   107 1   
    88    35    36 1   
    89    36    37 2   
    90    36    38 1   
    91    38    39 1   
    92    38   108 1   
    93    38   109 1   
    94    39    40 1   
    95    39   110 1   
    96    39   111 1   
    97    40    41 1   
    98    40   112 1   
    99    40   113 1   
   100    41    42 1   
   101    41   114 1   
   102    41   115 1   
   103    42    43 1   
   104    42   116 1   
   105    42   117 1   
   106    43    44 1   
   107    43   118 1   
   108    43   119 1   
   109    44    45 1   
   110    44   120 1   
   111    44   121 1   
   112    45    46 1   
   113    45   122 1   
   114    45   123 1   
   115    46    47 1   
   116    46   124 1   
   117    46   125 1   
   118    47    48 1   
   119    47   126 1   
   120    47   127 1   
   121    48    49 1   
   122    48   128 1   
   123    48   129 1   
   124    49    50 1   
   125    49   130 1   
   126    49   131 1   
   127    50    51 1   
   128    50   132 1   
   129    50   133 1   
   130    51    52 1   
   131    51   134 1   
   132    51   135 1   
   133    52    53 1   
   134    52   136 1   
   135    52   137 1   
   136    53    54 1   
   137    53   138 1   
   138    53   139 1   
   139    54   140 1   
   140    54   141 1   
   141    54   142 1   
@<TRIPOS>SUBSTRUCTURE
     1 PC1         1 TEMP              0 ****  ****    0 ROOT
