@<TRIPOS>MOLECULE
PC6
  145   144     1     0     0
SMALL
abcg2


@<TRIPOS>ATOM
      1 OP2         -8.6150    -4.0990     0.1120 o          1 PC6      -0.818000
      2 P           -7.1460    -4.3360     0.3150 p5         1 PC6       1.379800
      3 OP3         -6.6660    -5.7070     0.6780 o          1 PC6      -0.818000
      4 OP4         -6.5630    -3.2250     1.3840 os         1 PC6      -0.571400
      5 CE1         -6.9160    -3.3850     2.7380 c3         1 PC6       0.212600
      6 CE2         -7.3820    -2.0940     3.3730 c3         1 PC6       0.083600
      7 NM3         -8.7270    -1.5540     2.9570 n4         1 PC6      -0.485000
      8 CM3         -9.7840    -2.6010     3.0480 c3         1 PC6       0.071900
      9 CM2         -9.0650    -0.4460     3.8940 c3         1 PC6       0.071900
     10 CM1         -8.7030    -1.0090     1.5700 c3         1 PC6       0.071900
     11 OP1         -6.2830    -3.7320    -0.9320 os         1 PC6      -0.573400
     12 C39         -6.2160    -4.4910    -2.1170 c3         1 PC6       0.204600
     13 C38         -5.7170    -3.6260    -3.2650 c3         1 PC6       0.172300
     14 C40         -6.7280    -2.6550    -3.8280 c3         1 PC6       0.171600
     15 O40         -7.1560    -1.7590    -2.8090 os         1 PC6      -0.407100
     16 C26         -8.1040    -0.8820    -3.1130 c          1 PC6       0.597100
     17 O26         -8.5720    -0.7660    -4.2180 o          1 PC6      -0.500000
     18 C27         -8.5280    -0.0990    -1.9020 c3         1 PC6      -0.141400
     19 C28         -9.4000     1.1070    -2.2080 c3         1 PC6      -0.071400
     20 C29         -9.8510     1.8100    -0.9340 c3         1 PC6      -0.071400
     21 C30        -10.7240     3.0300    -1.1990 c3         1 PC6      -0.077400
     22 C31        -11.2070     3.7050     0.0780 c3         1 PC6      -0.072400
     23 C32        -12.0710     4.9340    -0.1790 c3         1 PC6      -0.075400
     24 C33        -12.5700     5.5960     1.0980 c3         1 PC6      -0.073400
     25 C34        -13.4300     6.8280     0.8440 c3         1 PC6      -0.075400
     26 C35        -13.9330     7.4850     2.1230 c3         1 PC6      -0.075400
     27 C36        -14.8000     8.7130     1.8730 c3         1 PC6      -0.075400
     28 C37        -15.2900     9.3630     3.1590 c3         1 PC6      -0.088100
     29 O38         -4.5690    -2.8660    -2.8770 os         1 PC6      -0.429100
     30 C1          -3.3810    -3.4630    -2.8320 c          1 PC6       0.601100
     31 O1          -3.2050    -4.6170    -3.1310 o          1 PC6      -0.495000
     32 C2          -2.3100    -2.5130    -2.3720 c3         1 PC6      -0.136400
     33 C3          -0.9350    -3.1510    -2.2540 c3         1 PC6      -0.068400
     34 C4           0.1130    -2.1540    -1.7770 c3         1 PC6      -0.075400
     35 C5           1.5010    -2.7700    -1.6460 c3         1 PC6      -0.074400
     36 C6           2.5510    -1.7750    -1.1690 c3         1 PC6      -0.074400
     37 C7           3.9460    -2.3770    -1.0480 c3         1 PC6      -0.074400
     38 C8           4.9890    -1.3710    -0.5770 c3         1 PC6      -0.074400
     39 C9           6.3970    -1.9460    -0.4850 c3         1 PC6      -0.074400
     40 C10          7.4260    -0.9190    -0.0290 c3         1 PC6      -0.075400
     41 C11          8.8560    -1.4460    -0.0010 c3         1 PC6      -0.073400
     42 C12          9.8620    -0.3850     0.4280 c3         1 PC6      -0.075400
     43 C13         11.3160    -0.8330     0.3330 c3         1 PC6      -0.073400
     44 C14         12.2940     0.2630     0.7410 c3         1 PC6      -0.074400
     45 C15         13.7550    -0.0950     0.5010 c3         1 PC6      -0.074400
     46 C16         14.7120     1.0250     0.8920 c3         1 PC6      -0.074400
     47 C17         16.1720     0.7150     0.5870 c3         1 PC6      -0.074400
     48 C18         17.1140     1.8510     0.9650 c3         1 PC6      -0.074400
     49 C19         18.5740     1.5630     0.6370 c3         1 PC6      -0.074400
     50 C20         19.5080     2.7090     1.0050 c3         1 PC6      -0.074400
     51 C21         20.9680     2.4330     0.6680 c3         1 PC6      -0.074400
     52 C22         21.8970     3.5850     1.0290 c3         1 PC6      -0.074400
     53 C23         23.3570     3.3120     0.6900 c3         1 PC6      -0.075400
     54 C24         24.2860     4.4670     1.0440 c3         1 PC6      -0.074400
     55 C25         25.7410     4.1810     0.7020 c3         1 PC6      -0.088100
     56 HE11        -7.6520    -4.1770     2.9000 h1         1 PC6       0.056200
     57 HE12        -6.0330    -3.6800     3.3140 h1         1 PC6       0.056200
     58 HE21        -7.4440    -2.2640     4.4480 hx         1 PC6       0.079700
     59 HE22        -6.6600    -1.2950     3.2020 hx         1 PC6       0.079700
     60 HM31        -9.7370    -3.0770     4.0250 hx         1 PC6       0.095922
     61 HM32       -10.7530    -2.1250     2.9230 hx         1 PC6       0.095922
     62 HM33        -9.6400    -3.3330     2.2590 hx         1 PC6       0.095922
     63 HM21        -8.2820     0.3070     3.8580 hx         1 PC6       0.095922
     64 HM22       -10.0110    -0.0040     3.5940 hx         1 PC6       0.095922
     65 HM23        -9.1500    -0.8410     4.9030 hx         1 PC6       0.095922
     66 HM11        -8.5650    -1.8190     0.8620 hx         1 PC6       0.095922
     67 HM12        -9.6580    -0.5230     1.3810 hx         1 PC6       0.095922
     68 HM13        -7.9010    -0.2810     1.4830 hx         1 PC6       0.095922
     69 H391        -7.1910    -4.8980    -2.4100 h1         1 PC6       0.043700
     70 H392        -5.5410    -5.3410    -1.9890 h1         1 PC6       0.043700
     71 H38         -5.4670    -4.3010    -4.0900 h1         1 PC6       0.062700
     72 H401        -6.2860    -2.1040    -4.6630 h1         1 PC6       0.053700
     73 H402        -7.5740    -3.2270    -4.2170 h1         1 PC6       0.053700
     74 H271        -9.0670    -0.7980    -1.2530 hc         1 PC6       0.067200
     75 H272        -7.6370     0.2000    -1.3420 hc         1 PC6       0.067200
     76 H281        -8.8510     1.8110    -2.8390 hc         1 PC6       0.058700
     77 H282       -10.2770     0.7950    -2.7810 hc         1 PC6       0.058700
     78 H291       -10.4020     1.1000    -0.3060 hc         1 PC6       0.023700
     79 H292        -8.9740     2.1140    -0.3520 hc         1 PC6       0.023700
     80 H301       -10.1640     3.7510    -1.8040 hc         1 PC6       0.046200
     81 H302       -11.5880     2.7330    -1.8020 hc         1 PC6       0.046200
     82 H311       -11.7720     2.9830     0.6780 hc         1 PC6       0.029700
     83 H312       -10.3430     3.9940     0.6870 hc         1 PC6       0.029700
     84 H321       -11.5010     5.6610    -0.7680 hc         1 PC6       0.041700
     85 H322       -12.9290     4.6490    -0.8000 hc         1 PC6       0.041700
     86 H331       -13.1430     4.8690     1.6840 hc         1 PC6       0.033700
     87 H332       -11.7130     5.8770     1.7210 hc         1 PC6       0.033700
     88 H341       -12.8570     7.5580     0.2620 hc         1 PC6       0.039700
     89 H342       -14.2860     6.5480     0.2180 hc         1 PC6       0.039700
     90 H351       -14.5030     6.7530     2.7070 hc         1 PC6       0.035700
     91 H352       -13.0780     7.7680     2.7470 hc         1 PC6       0.035700
     92 H361       -14.2320     9.4430     1.2860 hc         1 PC6       0.037700
     93 H362       -15.6570     8.4300     1.2540 hc         1 PC6       0.037700
     94 H371       -15.9180    10.2320     2.9570 hc         1 PC6       0.032033
     95 H372       -15.8770     8.6620     3.7560 hc         1 PC6       0.032033
     96 H373       -14.4530     9.6980     3.7760 hc         1 PC6       0.032033
     97 H21         -2.6220    -2.0900    -1.4120 hc         1 PC6       0.069200
     98 H22         -2.2840    -1.6680    -3.0680 hc         1 PC6       0.069200
     99 H31         -0.6330    -3.5610    -3.2210 hc         1 PC6       0.055200
    100 H32         -0.9780    -3.9940    -1.5590 hc         1 PC6       0.055200
    101 H41         -0.1930    -1.7390    -0.8100 hc         1 PC6       0.035200
    102 H42          0.1560    -1.3090    -2.4710 hc         1 PC6       0.035200
    103 H51          1.8060    -3.1850    -2.6120 hc         1 PC6       0.040700
    104 H52          1.4590    -3.6160    -0.9510 hc         1 PC6       0.040700
    105 H61          2.2480    -1.3640    -0.2000 hc         1 PC6       0.035700
    106 H62          2.5850    -0.9250    -1.8610 hc         1 PC6       0.035700
    107 H71          4.2500    -2.7860    -2.0170 hc         1 PC6       0.038700
    108 H72          3.9180    -3.2250    -0.3550 hc         1 PC6       0.038700
    109 H81          4.6940    -0.9750     0.4010 hc         1 PC6       0.035700
    110 H82          4.9970    -0.5140    -1.2600 hc         1 PC6       0.035700
    111 H91          6.6910    -2.3420    -1.4640 hc         1 PC6       0.037700
    112 H92          6.4000    -2.8000     0.2020 hc         1 PC6       0.037700
    113 H101         7.1530    -0.5490     0.9660 hc         1 PC6       0.036200
    114 H102         7.3830    -0.0500    -0.6960 hc         1 PC6       0.036200
    115 H111         9.1230    -1.8150    -0.9980 hc         1 PC6       0.038200
    116 H112         8.9180    -2.3090     0.6700 hc         1 PC6       0.038200
    117 H121         9.6420    -0.0680     1.4540 hc         1 PC6       0.036200
    118 H122         9.7280     0.5040    -0.1970 hc         1 PC6       0.036200
    119 H131        11.5280    -1.1420    -0.6970 hc         1 PC6       0.038200
    120 H132        11.4750    -1.7190     0.9560 hc         1 PC6       0.038200
    121 H141        12.1460     0.5080     1.7980 hc         1 PC6       0.036700
    122 H142        12.0560     1.1760     0.1840 hc         1 PC6       0.036700
    123 H151        13.8960    -0.3380    -0.5580 hc         1 PC6       0.037200
    124 H152        14.0120    -1.0050     1.0560 hc         1 PC6       0.037200
    125 H161        14.6010     1.2410     1.9600 hc         1 PC6       0.036700
    126 H162        14.4210     1.9420     0.3680 hc         1 PC6       0.036700
    127 H171        16.2790     0.4950    -0.4810 hc         1 PC6       0.037700
    128 H172        16.4720    -0.1980     1.1140 hc         1 PC6       0.037700
    129 H181        17.0180     2.0610     2.0360 hc         1 PC6       0.036700
    130 H182        16.8010     2.7650     0.4490 hc         1 PC6       0.036700
    131 H191        18.6690     1.3480    -0.4340 hc         1 PC6       0.037200
    132 H192        18.8930     0.6530     1.1570 hc         1 PC6       0.037200
    133 H201        19.4170     2.9220     2.0760 hc         1 PC6       0.036700
    134 H202        19.1830     3.6190     0.4880 hc         1 PC6       0.036700
    135 H211        21.0580     2.2160    -0.4020 hc         1 PC6       0.036700
    136 H212        21.2960     1.5260     1.1880 hc         1 PC6       0.036700
    137 H221        21.8080     3.8020     2.0990 hc         1 PC6       0.036700
    138 H222        21.5670     4.4920     0.5100 hc         1 PC6       0.036700
    139 H231        23.4460     3.0910    -0.3800 hc         1 PC6       0.036700
    140 H232        23.6890     2.4080     1.2120 hc         1 PC6       0.036700
    141 H241        24.1970     4.6880     2.1120 hc         1 PC6       0.036700
    142 H242        23.9550     5.3700     0.5210 hc         1 PC6       0.036700
    143 H251        26.3880     5.0200     0.9610 hc         1 PC6       0.031367
    144 H252        26.1070     3.3050     1.2420 hc         1 PC6       0.031367
    145 H253        25.8650     3.9850    -0.3640 hc         1 PC6       0.031367
@<TRIPOS>BOND
     1     1     2 1   
     2     2     3 1   
     3     2     4 1   
     4     2    11 1   
     5     4     5 1   
     6     5     6 1   
     7     5    56 1   
     8     5    57 1   
     9     6     7 1   
    10     6    58 1   
    11     6    59 1   
    12     7     8 1   
    13     7     9 1   
    14     7    10 1   
    15     8    60 1   
    16     8    61 1   
    17     8    62 1   
    18     9    63 1   
    19     9    64 1   
    20     9    65 1   
    21    10    66 1   
    22    10    67 1   
    23    10    68 1   
    24    11    12 1   
    25    12    13 1   
    26    12    69 1   
    27    12    70 1   
    28    13    14 1   
    29    13    29 1   
    30    13    71 1   
    31    14    15 1   
    32    14    72 1   
    33    14    73 1   
    34    15    16 1   
    35    16    17 2   
    36    16    18 1   
    37    18    19 1   
    38    18    74 1   
    39    18    75 1   
    40    19    20 1   
    41    19    76 1   
    42    19    77 1   
    43    20    21 1   
    44    20    78 1   
    45    20    79 1   
    46    21    22 1   
    47    21    80 1   
    48    21    81 1   
    49    22    23 1   
    50    22    82 1   
    51    22    83 1   
    52    23    24 1   
    53    23    84 1   
    54    23    85 1   
    55    24    25 1   
    56    24    86 1   
    57    24    87 1   
    58    25    26 1   
    59    25    88 1   
    60    25    89 1   
    61    26    27 1   
    62    26    90 1   
    63    26    91 1   
    64    27    28 1   
    65    27    92 1   
    66    27    93 1   
    67    28    94 1   
    68    28    95 1   
    69    28    96 1   
    70    29    30 1   
    71    30    31 2   
    72    30    32 1   
    73    32    33 1   
    74    32    97 1   
    75    32    98 1   
    76    33    34 1   
    77    33    99 1   
    78    33   100 1   
    79    34    35 1   
    80    34   101 1   
    81    34   102 1   
    82    35    36 1   
    83    35   103 1   
    84    35   104 1   
    85    36    37 1   
    86    36   105 1   
    87    36   106 1   
    88    37    38 1   
    89    37   107 1   
    90    37   108 1   
    91    38    39 1   
    92    38   109 1   
    93    38   110 1   
    94    39    40 1   
    95    39   111 1   
    96    39   112 1   
    97    40    41 1   
    98    40   113 1   
    99    40   114 1   
   100    41    42 1   
   101    41   115 1   
   102    41   116 1   
   103    42    43 1   
   104    42   117 1   
   105    42   118 1   
   106    43    44 1   
   107    43   119 1   
   108    43   120 1   
   109    44    45 1   
   110    44   121 1   
   111    44   122 1   
   112    45    46 1   
   113    45   123 1   
   114    45   124 1   
   115    46    47 1   
   116    46   125 1   
   117    46   126 1   
   118    47    48 1   
   119    47   127 1   
   120    47   128 1   
   121    48    49 1   
   122    48   129 1   
   123    48   130 1   
   124    49    50 1   
   125    49   131 1   
   126    49   132 1   
   127    50    51 1   
   128    50   133 1   
   129    50   134 1   
   130    51    52 1   
   131    51   135 1   
   132    51   136 1   
   133    52    53 1   
   134    52   137 1   
   135    52   138 1   
   136    53    54 1   
   137    53   139 1   
   138    53   140 1   
   139    54    55 1   
   140    54   141 1   
   141    54   142 1   
   142    55   143 1   
   143    55   144 1   
   144    55   145 1   
@<TRIPOS>SUBSTRUCTURE
     1 PC6         1 TEMP              0 ****  ****    0 ROOT
