@<TRIPOS>MOLECULE
PC6
  145   144     1     0     0
SMALL
No Charge or Current Charge


@<TRIPOS>ATOM
      1 OP2        -10.1200    -4.1780     1.2740 o          1 PC6      -0.818000
      2 P           -8.9850    -5.1100     1.0160 p5         1 PC6       1.379800
      3 OP3         -9.4470    -6.5280     0.9650 o          1 PC6      -0.818000
      4 OP4         -7.8110    -4.9160     2.1070 os         1 PC6      -0.571400
      5 CE1         -7.4720    -3.6140     2.6180 c3         1 PC6       0.212600
      6 CE2         -6.6800    -2.8130     1.5540 c3         1 PC6       0.083600
      7 NM3         -7.1460    -1.3960     1.1820 n4         1 PC6      -0.485000
      8 CM3         -7.1180    -0.4790     2.4140 c3         1 PC6       0.071900
      9 CM2         -6.1980    -0.8310     0.1190 c3         1 PC6       0.071900
     10 CM1         -8.5640    -1.4420     0.6050 c3         1 PC6       0.071900
     11 OP1         -8.1790    -4.7130    -0.3180 os         1 PC6      -0.573400
     12 C39         -7.3500    -5.7000    -0.9510 c3         1 PC6       0.204600
     13 C38         -6.3060    -5.0430    -1.9140 c3         1 PC6       0.172300
     14 C40         -6.8960    -4.2740    -3.1300 c3         1 PC6       0.171600
     15 O40         -7.7930    -3.2290    -2.7060 os         1 PC6      -0.407100
     16 C26         -8.3970    -2.4750    -3.6760 c          1 PC6       0.597100
     17 O26         -8.1460    -2.5510    -4.8710 o          1 PC6      -0.500000
     18 C27         -9.3900    -1.4750    -3.0820 c3         1 PC6      -0.141400
     19 C28         -8.7080    -0.1320    -2.7310 c3         1 PC6      -0.071400
     20 C29         -9.6620     0.8590    -2.0310 c3         1 PC6      -0.071400
     21 C30         -8.9480     2.1240    -1.5080 c3         1 PC6      -0.077400
     22 C31         -9.9030     3.0870    -0.7700 c3         1 PC6      -0.072400
     23 C32         -9.1990     4.3500    -0.2310 c3         1 PC6      -0.075400
     24 C33        -10.1590     5.2960     0.5230 c3         1 PC6      -0.073400
     25 C34         -9.4630     6.5630     1.0670 c3         1 PC6      -0.075400
     26 C35        -10.4260     7.4970     1.8330 c3         1 PC6      -0.075400
     27 C36         -9.7360     8.7700     2.3710 c3         1 PC6      -0.075400
     28 C37        -10.6960     9.6970     3.1400 c3         1 PC6      -0.088100
     29 O38         -5.3980    -4.1670    -1.1970 os         1 PC6      -0.429100
     30 C1          -4.4560    -4.7280    -0.3720 c          1 PC6       0.601100
     31 O1          -4.3110    -5.9290    -0.1950 o          1 PC6      -0.495000
     32 C2          -3.5420    -3.6720     0.2540 c3         1 PC6      -0.136400
     33 C3          -2.2060    -3.5570    -0.5170 c3         1 PC6      -0.068400
     34 C4          -1.2240    -2.5510     0.1230 c3         1 PC6      -0.075400
     35 C5           0.1330    -2.4850    -0.6110 c3         1 PC6      -0.074400
     36 C6           1.1410    -1.5280     0.0620 c3         1 PC6      -0.074400
     37 C7           2.5170    -1.5090    -0.6400 c3         1 PC6      -0.074400
     38 C8           3.5460    -0.6010     0.0680 c3         1 PC6      -0.074400
     39 C9           4.9360    -0.6260    -0.6060 c3         1 PC6      -0.074400
     40 C10          5.9860     0.2310     0.1360 c3         1 PC6      -0.075400
     41 C11          7.3860     0.1640    -0.5130 c3         1 PC6      -0.073400
     42 C12          8.4530     0.9700     0.2600 c3         1 PC6      -0.075400
     43 C13          9.8600     0.8610    -0.3670 c3         1 PC6      -0.073400
     44 C14         10.9430     1.6160     0.4350 c3         1 PC6      -0.074400
     45 C15         12.3550     1.4640    -0.1740 c3         1 PC6      -0.074400
     46 C16         13.4540     2.1680     0.6530 c3         1 PC6      -0.074400
     47 C17         14.8670     1.9740     0.0600 c3         1 PC6      -0.074400
     48 C18         15.9780     2.6340     0.9060 c3         1 PC6      -0.074400
     49 C19         17.3900     2.4060     0.3230 c3         1 PC6      -0.074400
     50 C20         18.5120     3.0330     1.1810 c3         1 PC6      -0.074400
     51 C21         19.9220     2.7810     0.6020 c3         1 PC6      -0.074400
     52 C22         21.0500     3.3870     1.4650 c3         1 PC6      -0.074400
     53 C23         22.4580     3.1240     0.8850 c3         1 PC6      -0.075400
     54 C24         23.5910     3.7170     1.7510 c3         1 PC6      -0.074400
     55 C25         24.9930     3.4540     1.1700 c3         1 PC6      -0.088100
     56 HE11        -8.3750    -3.0600     2.9030 h1         1 PC6       0.056200
     57 HE12        -6.8540    -3.7080     3.5200 h1         1 PC6       0.056200
     58 HE21        -5.6480    -2.7340     1.9000 hx         1 PC6       0.079700
     59 HE22        -6.6660    -3.3870     0.6300 hx         1 PC6       0.079700
     60 HM31        -6.1050    -0.4490     2.8190 hx         1 PC6       0.095922
     61 HM32        -7.4260     0.5270     2.1200 hx         1 PC6       0.095922
     62 HM33        -7.8050    -0.8640     3.1700 hx         1 PC6       0.095922
     63 HM21        -6.2010    -1.4930    -0.7500 hx         1 PC6       0.095922
     64 HM22        -6.5370     0.1650    -0.1740 hx         1 PC6       0.095922
     65 HM23        -5.1890    -0.7680     0.5310 hx         1 PC6       0.095922
     66 HM11        -9.2540    -1.8150     1.3640 hx         1 PC6       0.095922
     67 HM12        -8.8610    -0.4360     0.3050 hx         1 PC6       0.095922
     68 HM13        -8.5750    -2.1090    -0.2600 hx         1 PC6       0.095922
     69 H391        -7.9730    -6.3890    -1.5370 h1         1 PC6       0.043700
     70 H392        -6.8240    -6.3030    -0.2000 h1         1 PC6       0.043700
     71 H38         -5.7290    -5.8670    -2.3530 h1         1 PC6       0.062700
     72 H401        -6.0670    -3.8560    -3.7160 h1         1 PC6       0.053700
     73 H402        -7.4270    -4.9910    -3.7690 h1         1 PC6       0.053700
     74 H271       -10.1980    -1.2920    -3.8000 hc         1 PC6       0.067200
     75 H272        -9.7890    -1.8920    -2.1500 hc         1 PC6       0.067200
     76 H281        -7.8470    -0.3290    -2.0820 hc         1 PC6       0.058700
     77 H282        -8.3130     0.3280    -3.6460 hc         1 PC6       0.058700
     78 H291       -10.4530     1.1520    -2.7330 hc         1 PC6       0.023700
     79 H292       -10.1580     0.3570    -1.1910 hc         1 PC6       0.023700
     80 H301        -8.1420     1.8270    -0.8250 hc         1 PC6       0.046200
     81 H302        -8.4800     2.6490    -2.3500 hc         1 PC6       0.046200
     82 H311       -10.7090     3.3870    -1.4520 hc         1 PC6       0.029700
     83 H312       -10.3730     2.5540     0.0660 hc         1 PC6       0.029700
     84 H321        -8.3860     4.0510     0.4420 hc         1 PC6       0.041700
     85 H322        -8.7390     4.8920    -1.0670 hc         1 PC6       0.041700
     86 H331       -10.9730     5.5940    -0.1500 hc         1 PC6       0.033700
     87 H332       -10.6170     4.7520     1.3580 hc         1 PC6       0.033700
     88 H341        -8.6430     6.2670     1.7330 hc         1 PC6       0.039700
     89 H342        -9.0150     7.1150     0.2310 hc         1 PC6       0.039700
     90 H351       -11.2500     7.7880     1.1700 hc         1 PC6       0.035700
     91 H352       -10.8700     6.9470     2.6730 hc         1 PC6       0.035700
     92 H361        -8.9090     8.4840     3.0330 hc         1 PC6       0.037700
     93 H362        -9.2970     9.3270     1.5330 hc         1 PC6       0.037700
     94 H371       -10.1650    10.5900     3.4920 hc         1 PC6       0.032033
     95 H372       -11.5220    10.0210     2.4960 hc         1 PC6       0.032033
     96 H373       -11.1180     9.1820     4.0120 hc         1 PC6       0.032033
     97 H21         -3.3310    -3.9590     1.2910 hc         1 PC6       0.069200
     98 H22         -4.0330    -2.6950     0.2200 hc         1 PC6       0.069200
     99 H31         -2.4100    -3.2580    -1.5540 hc         1 PC6       0.055200
    100 H32         -1.7300    -4.5450    -0.5580 hc         1 PC6       0.055200
    101 H41         -1.0520    -2.8350     1.1690 hc         1 PC6       0.035200
    102 H42         -1.6800    -1.5530     0.1320 hc         1 PC6       0.035200
    103 H51         -0.0310    -2.1680    -1.6490 hc         1 PC6       0.040700
    104 H52          0.5680    -3.4920    -0.6500 hc         1 PC6       0.040700
    105 H61          1.2770    -1.8300     1.1080 hc         1 PC6       0.035700
    106 H62          0.7250    -0.5120     0.0730 hc         1 PC6       0.035700
    107 H71          2.3900    -1.1730    -1.6770 hc         1 PC6       0.038700
    108 H72          2.9110    -2.5320    -0.6800 hc         1 PC6       0.038700
    109 H81          3.6490    -0.9220     1.1120 hc         1 PC6       0.035700
    110 H82          3.1700     0.4300     0.0860 hc         1 PC6       0.035700
    111 H91          4.8430    -0.2700    -1.6400 hc         1 PC6       0.037700
    112 H92          5.2910    -1.6630    -0.6540 hc         1 PC6       0.037700
    113 H101         6.0570    -0.1110     1.1760 hc         1 PC6       0.036200
    114 H102         5.6490     1.2750     0.1640 hc         1 PC6       0.036200
    115 H111         7.3250     0.5390    -1.5430 hc         1 PC6       0.038200
    116 H112         7.7030    -0.8840    -0.5720 hc         1 PC6       0.038200
    117 H121         8.4930     0.6090     1.2960 hc         1 PC6       0.036200
    118 H122         8.1540     2.0250     0.3000 hc         1 PC6       0.036200
    119 H131         9.8300     1.2520    -1.3920 hc         1 PC6       0.038200
    120 H132        10.1400    -0.1970    -0.4360 hc         1 PC6       0.038200
    121 H141        10.9540     1.2400     1.4650 hc         1 PC6       0.036700
    122 H142        10.6830     2.6810     0.4840 hc         1 PC6       0.036700
    123 H151        12.3540     1.8680    -1.1940 hc         1 PC6       0.037200
    124 H152        12.5970     0.3970    -0.2530 hc         1 PC6       0.037200
    125 H161        13.4370     1.7780     1.6780 hc         1 PC6       0.036700
    126 H162        13.2300     3.2410     0.7140 hc         1 PC6       0.036700
    127 H171        14.8920     2.3880    -0.9550 hc         1 PC6       0.037700
    128 H172        15.0740     0.9000    -0.0260 hc         1 PC6       0.037700
    129 H181        15.9410     2.2310     1.9260 hc         1 PC6       0.036700
    130 H182        15.7860     3.7120     0.9800 hc         1 PC6       0.036700
    131 H191        17.4340     2.8250    -0.6900 hc         1 PC6       0.037200
    132 H192        17.5700     1.3270     0.2320 hc         1 PC6       0.037200
    133 H201        18.4610     2.6210     2.1970 hc         1 PC6       0.036700
    134 H202        18.3420     4.1130     1.2640 hc         1 PC6       0.036700
    135 H211        19.9760     3.2030    -0.4100 hc         1 PC6       0.036700
    136 H212        20.0840     1.7000     0.5070 hc         1 PC6       0.036700
    137 H221        20.9940     2.9680     2.4780 hc         1 PC6       0.036700
    138 H222        20.8940     4.4690     1.5570 hc         1 PC6       0.036700
    139 H231        22.5160     3.5480    -0.1250 hc         1 PC6       0.036700
    140 H232        22.6100     2.0420     0.7870 hc         1 PC6       0.036700
    141 H241        23.5380     3.2920     2.7610 hc         1 PC6       0.036700
    142 H242        23.4430     4.8000     1.8510 hc         1 PC6       0.036700
    143 H251        25.7630     3.8910     1.8170 hc         1 PC6       0.031367
    144 H252        25.1840     2.3770     1.0880 hc         1 PC6       0.031367
    145 H253        25.0910     3.9000     0.1720 hc         1 PC6       0.031367
@<TRIPOS>BOND
     1     1     2 1   
     2     2     3 1   
     3     2     4 1   
     4     2    11 1   
     5     4     5 1   
     6     5     6 1   
     7     5    56 1   
     8     5    57 1   
     9     6     7 1   
    10     6    58 1   
    11     6    59 1   
    12     7     8 1   
    13     7     9 1   
    14     7    10 1   
    15     8    60 1   
    16     8    61 1   
    17     8    62 1   
    18     9    63 1   
    19     9    64 1   
    20     9    65 1   
    21    10    66 1   
    22    10    67 1   
    23    10    68 1   
    24    11    12 1   
    25    12    13 1   
    26    12    69 1   
    27    12    70 1   
    28    13    14 1   
    29    13    29 1   
    30    13    71 1   
    31    14    15 1   
    32    14    72 1   
    33    14    73 1   
    34    15    16 1   
    35    16    17 2   
    36    16    18 1   
    37    18    19 1   
    38    18    74 1   
    39    18    75 1   
    40    19    20 1   
    41    19    76 1   
    42    19    77 1   
    43    20    21 1   
    44    20    78 1   
    45    20    79 1   
    46    21    22 1   
    47    21    80 1   
    48    21    81 1   
    49    22    23 1   
    50    22    82 1   
    51    22    83 1   
    52    23    24 1   
    53    23    84 1   
    54    23    85 1   
    55    24    25 1   
    56    24    86 1   
    57    24    87 1   
    58    25    26 1   
    59    25    88 1   
    60    25    89 1   
    61    26    27 1   
    62    26    90 1   
    63    26    91 1   
    64    27    28 1   
    65    27    92 1   
    66    27    93 1   
    67    28    94 1   
    68    28    95 1   
    69    28    96 1   
    70    29    30 1   
    71    30    31 2   
    72    30    32 1   
    73    32    33 1   
    74    32    97 1   
    75    32    98 1   
    76    33    34 1   
    77    33    99 1   
    78    33   100 1   
    79    34    35 1   
    80    34   101 1   
    81    34   102 1   
    82    35    36 1   
    83    35   103 1   
    84    35   104 1   
    85    36    37 1   
    86    36   105 1   
    87    36   106 1   
    88    37    38 1   
    89    37   107 1   
    90    37   108 1   
    91    38    39 1   
    92    38   109 1   
    93    38   110 1   
    94    39    40 1   
    95    39   111 1   
    96    39   112 1   
    97    40    41 1   
    98    40   113 1   
    99    40   114 1   
   100    41    42 1   
   101    41   115 1   
   102    41   116 1   
   103    42    43 1   
   104    42   117 1   
   105    42   118 1   
   106    43    44 1   
   107    43   119 1   
   108    43   120 1   
   109    44    45 1   
   110    44   121 1   
   111    44   122 1   
   112    45    46 1   
   113    45   123 1   
   114    45   124 1   
   115    46    47 1   
   116    46   125 1   
   117    46   126 1   
   118    47    48 1   
   119    47   127 1   
   120    47   128 1   
   121    48    49 1   
   122    48   129 1   
   123    48   130 1   
   124    49    50 1   
   125    49   131 1   
   126    49   132 1   
   127    50    51 1   
   128    50   133 1   
   129    50   134 1   
   130    51    52 1   
   131    51   135 1   
   132    51   136 1   
   133    52    53 1   
   134    52   137 1   
   135    52   138 1   
   136    53    54 1   
   137    53   139 1   
   138    53   140 1   
   139    54    55 1   
   140    54   141 1   
   141    54   142 1   
   142    55   143 1   
   143    55   144 1   
   144    55   145 1   
@<TRIPOS>SUBSTRUCTURE
     1 PC6         1 TEMP              0 ****  ****    0 ROOT
