@<TRIPOS>MOLECULE
PC7
  136   135     1     0     0
SMALL
No Charge or Current Charge


@<TRIPOS>ATOM
      1 C48         17.0520     8.0010    -4.1370 c3         1 PC7      -0.088100
      2 C47         16.1150     6.7990    -4.3640 c3         1 PC7      -0.075400
      3 C46         15.2380     6.4760    -3.1340 c3         1 PC7      -0.075400
      4 C45         14.2940     5.2750    -3.3640 c3         1 PC7      -0.074400
      5 C44         13.4170     4.9520    -2.1350 c3         1 PC7      -0.074400
      6 C43         12.4640     3.7590    -2.3680 c3         1 PC7      -0.074400
      7 C42         11.5860     3.4380    -1.1390 c3         1 PC7      -0.074400
      8 C41         10.6260     2.2510    -1.3750 c3         1 PC7      -0.074400
      9 C40          9.7510     1.9270    -0.1440 c3         1 PC7      -0.074400
     10 C39          8.7880     0.7440    -0.3820 c3         1 PC7      -0.074400
     11 C38          7.9220     0.4120     0.8540 c3         1 PC7      -0.073400
     12 C37          6.9600    -0.7730     0.6170 c3         1 PC7      -0.075400
     13 C36          6.1070    -1.1170     1.8570 c3         1 PC7      -0.073400
     14 C35          5.1480    -2.3050     1.6200 c3         1 PC7      -0.076400
     15 C34          4.3030    -2.6560     2.8630 c3         1 PC7      -0.071400
     16 C33          3.3380    -3.8370     2.6200 c3         1 PC7      -0.067400
     17 C32          2.4640    -4.1670     3.8510 c3         1 PC7      -0.127400
     18 C31          1.4400    -5.2680     3.5480 c          1 PC7       0.624100
     19 O31          1.6800    -6.4590     3.6990 o          1 PC7      -0.483000
     20 O2           0.1900    -4.7490     3.3010 os         1 PC7      -0.456100
     21 C2          -0.9330    -5.6600     3.1730 c3         1 PC7       0.134300
     22 C1          -0.8960    -6.4680     1.8290 c3         1 PC7       0.205600
     23 O3P         -0.9470    -5.6450     0.6390 os         1 PC7      -0.588400
     24 P            0.3800    -5.0650    -0.0760 p5         1 PC7       1.383800
     25 O1P          1.6040    -5.7990     0.3520 o          1 PC7      -0.811500
     26 O2P          0.2380    -5.0870    -1.5620 o          1 PC7      -0.811500
     27 O4P          0.3710    -3.5540     0.4820 os         1 PC7      -0.583400
     28 C4          -0.4560    -2.5730    -0.1630 c3         1 PC7       0.215600
     29 C5          -1.2450    -1.7810     0.9060 c3         1 PC7       0.085600
     30 N           -0.5160    -0.7380     1.7750 n4         1 PC7      -0.486000
     31 C7           0.0750     0.3750     0.8980 c3         1 PC7       0.072567
     32 C8          -1.5260    -0.1250     2.7530 c3         1 PC7       0.072567
     33 C6           0.6030    -1.4050     2.5770 c3         1 PC7       0.072567
     34 C3          -2.2510    -4.8970     3.5190 c3         1 PC7       0.174600
     35 O3          -2.8210    -4.2220     2.3770 os         1 PC7      -0.448100
     36 C11         -3.7070    -4.9000     1.5760 c          1 PC7       0.620100
     37 O11         -4.2050    -5.9820     1.8570 o          1 PC7      -0.480000
     38 C12         -4.2130    -4.0170     0.4350 c3         1 PC7      -0.141400
     39 C13         -5.2990    -3.0280     0.9220 c3         1 PC7      -0.068400
     40 C14         -5.7720    -2.0600    -0.1850 c3         1 PC7      -0.073400
     41 C15         -6.8530    -1.0700     0.3000 c3         1 PC7      -0.075400
     42 C16         -7.3220    -0.0990    -0.8060 c3         1 PC7      -0.073400
     43 C17         -8.4090     0.8880    -0.3240 c3         1 PC7      -0.074400
     44 C18         -8.8770     1.8580    -1.4300 c3         1 PC7      -0.074400
     45 C19         -9.9670     2.8430    -0.9520 c3         1 PC7      -0.074400
     46 C20        -10.4340     3.8120    -2.0600 c3         1 PC7      -0.073400
     47 C21        -11.5240     4.7980    -1.5840 c3         1 PC7      -0.074400
     48 C22        -11.9880     5.7660    -2.6940 c3         1 PC7      -0.074400
     49 C23        -13.0770     6.7540    -2.2200 c3         1 PC7      -0.074400
     50 C24        -13.5390     7.7220    -3.3320 c3         1 PC7      -0.075400
     51 C25        -14.6260     8.7120    -2.8590 c3         1 PC7      -0.074400
     52 C26        -15.0870     9.6780    -3.9670 c3         1 PC7      -0.088100
     53 H481        17.6530     8.1920    -5.0350 hc         1 PC7       0.031367
     54 H482        16.4750     8.9060    -3.9130 hc         1 PC7       0.031367
     55 H483        17.7350     7.8090    -3.3010 hc         1 PC7       0.031367
     56 H471        15.4700     7.0080    -5.2260 hc         1 PC7       0.036700
     57 H472        16.7190     5.9200    -4.6220 hc         1 PC7       0.036700
     58 H461        15.8870     6.2650    -2.2750 hc         1 PC7       0.036700
     59 H462        14.6410     7.3590    -2.8760 hc         1 PC7       0.036700
     60 H451        13.6460     5.4860    -4.2240 hc         1 PC7       0.037200
     61 H452        14.8920     4.3910    -3.6220 hc         1 PC7       0.037200
     62 H441        14.0650     4.7340    -1.2770 hc         1 PC7       0.036700
     63 H442        12.8250     5.8380    -1.8720 hc         1 PC7       0.036700
     64 H431        11.8160     3.9780    -3.2260 hc         1 PC7       0.037700
     65 H432        13.0550     2.8720    -2.6300 hc         1 PC7       0.037700
     66 H421        12.2340     3.2110    -0.2820 hc         1 PC7       0.036200
     67 H422        11.0010     4.3260    -0.8720 hc         1 PC7       0.036200
     68 H411         9.9750     2.4790    -2.2290 hc         1 PC7       0.038200
     69 H412        11.2100     1.3630    -1.6450 hc         1 PC7       0.038200
     70 H401        10.4020     1.6960     0.7090 hc         1 PC7       0.035700
     71 H402         9.1690     2.8160     0.1290 hc         1 PC7       0.035700
     72 H391         8.1310     0.9780    -1.2290 hc         1 PC7       0.039200
     73 H392         9.3690    -0.1430    -0.6620 hc         1 PC7       0.039200
     74 H381         8.5790     0.1780     1.7010 hc         1 PC7       0.033700
     75 H382         7.3390     1.2980     1.1350 hc         1 PC7       0.033700
     76 H371         6.2960    -0.5360    -0.2240 hc         1 PC7       0.041200
     77 H372         7.5420    -1.6570     0.3250 hc         1 PC7       0.041200
     78 H361         6.7710    -1.3530     2.6970 hc         1 PC7       0.030700
     79 H362         5.5220    -0.2350     2.1480 hc         1 PC7       0.030700
     80 H351         4.4780    -2.0650     0.7840 hc         1 PC7       0.045700
     81 H352         5.7310    -3.1850     1.3200 hc         1 PC7       0.045700
     82 H341         4.9710    -2.9030     3.6970 hc         1 PC7       0.022200
     83 H342         3.7250    -1.7740     3.1640 hc         1 PC7       0.022200
     84 H331         2.6890    -3.5930     1.7710 hc         1 PC7       0.063200
     85 H332         3.9120    -4.7270     2.3330 hc         1 PC7       0.063200
     86 H321         3.1140    -4.4940     4.6710 hc         1 PC7       0.056700
     87 H322         1.9330    -3.2520     4.1290 hc         1 PC7       0.056700
     88 H2          -0.8510    -6.4120     3.9690 h1         1 PC7       0.063700
     89 H11         -0.0030    -7.1050     1.8210 h1         1 PC7       0.053700
     90 H12         -1.7490    -7.1580     1.8290 h1         1 PC7       0.053700
     91 H41          0.1520    -1.8860    -0.7650 h1         1 PC7       0.057200
     92 H42         -1.1840    -3.0460    -0.8360 h1         1 PC7       0.057200
     93 H51         -2.0520    -1.2510     0.3960 hx         1 PC7       0.078700
     94 H52         -1.6980    -2.4990     1.5870 hx         1 PC7       0.078700
     95 H71         -0.7260     0.8430     0.3210 hx         1 PC7       0.095811
     96 H72          0.5510     1.1220     1.5370 hx         1 PC7       0.095811
     97 H73          0.8170    -0.0520     0.2210 hx         1 PC7       0.095811
     98 H81         -1.9450    -0.9150     3.3790 hx         1 PC7       0.095811
     99 H82         -1.0210     0.6130     3.3800 hx         1 PC7       0.095811
    100 H83         -2.3270     0.3590     2.1880 hx         1 PC7       0.095811
    101 H61          1.3430    -1.8140     1.8870 hx         1 PC7       0.095811
    102 H62          1.0750    -0.6660     3.2290 hx         1 PC7       0.095811
    103 H63          0.1770    -2.2130     3.1760 hx         1 PC7       0.095811
    104 H31         -2.9700    -5.5950     3.9670 h1         1 PC7       0.063200
    105 H32         -2.0140    -4.1600     4.2970 h1         1 PC7       0.063200
    106 H121        -3.3790    -3.4180     0.0580 hc         1 PC7       0.066200
    107 H122        -4.6260    -4.6480    -0.3600 hc         1 PC7       0.066200
    108 H131        -6.1590    -3.5940     1.3020 hc         1 PC7       0.057200
    109 H132        -4.9050    -2.4420     1.7630 hc         1 PC7       0.057200
    110 H141        -4.9090    -1.4950    -0.5610 hc         1 PC7       0.027200
    111 H142        -6.1660    -2.6420    -1.0280 hc         1 PC7       0.027200
    112 H151        -7.7170    -1.6350     0.6730 hc         1 PC7       0.043700
    113 H152        -6.4600    -0.4910     1.1440 hc         1 PC7       0.043700
    114 H161        -6.4590     0.4690    -1.1760 hc         1 PC7       0.032200
    115 H162        -7.7120    -0.6780    -1.6520 hc         1 PC7       0.032200
    116 H171        -9.2720     0.3200     0.0460 hc         1 PC7       0.040700
    117 H172        -8.0200     1.4670     0.5230 hc         1 PC7       0.040700
    118 H181        -8.0140     2.4280    -1.7980 hc         1 PC7       0.034700
    119 H182        -9.2630     1.2780    -2.2780 hc         1 PC7       0.034700
    120 H191       -10.8300     2.2740    -0.5840 hc         1 PC7       0.038700
    121 H192        -9.5810     3.4240    -0.1040 hc         1 PC7       0.038700
    122 H201        -9.5700     4.3810    -2.4280 hc         1 PC7       0.035700
    123 H202       -10.8190     3.2310    -2.9070 hc         1 PC7       0.035700
    124 H211       -12.3880     4.2300    -1.2170 hc         1 PC7       0.037700
    125 H212       -11.1390     5.3790    -0.7370 hc         1 PC7       0.037700
    126 H221       -11.1230     6.3330    -3.0620 hc         1 PC7       0.036200
    127 H222       -12.3740     5.1840    -3.5410 hc         1 PC7       0.036200
    128 H231       -13.9420     6.1880    -1.8530 hc         1 PC7       0.037200
    129 H232       -12.6910     7.3360    -1.3730 hc         1 PC7       0.037200
    130 H241       -12.6730     8.2880    -3.6990 hc         1 PC7       0.036200
    131 H242       -13.9250     7.1410    -4.1780 hc         1 PC7       0.036200
    132 H251       -15.4950     8.1500    -2.4920 hc         1 PC7       0.037200
    133 H252       -14.2430     9.2970    -2.0130 hc         1 PC7       0.037200
    134 H261       -15.5080     9.1240    -4.8150 hc         1 PC7       0.031700
    135 H262       -15.8570    10.3590    -3.5860 hc         1 PC7       0.031700
    136 H263       -14.2450    10.2810    -4.3310 hc         1 PC7       0.031700
@<TRIPOS>BOND
     1     1     2 1   
     2     1    53 1   
     3     1    54 1   
     4     1    55 1   
     5     2     3 1   
     6     2    56 1   
     7     2    57 1   
     8     3     4 1   
     9     3    58 1   
    10     3    59 1   
    11     4     5 1   
    12     4    60 1   
    13     4    61 1   
    14     5     6 1   
    15     5    62 1   
    16     5    63 1   
    17     6     7 1   
    18     6    64 1   
    19     6    65 1   
    20     7     8 1   
    21     7    66 1   
    22     7    67 1   
    23     8     9 1   
    24     8    68 1   
    25     8    69 1   
    26     9    10 1   
    27     9    70 1   
    28     9    71 1   
    29    10    11 1   
    30    10    72 1   
    31    10    73 1   
    32    11    12 1   
    33    11    74 1   
    34    11    75 1   
    35    12    13 1   
    36    12    76 1   
    37    12    77 1   
    38    13    14 1   
    39    13    78 1   
    40    13    79 1   
    41    14    15 1   
    42    14    80 1   
    43    14    81 1   
    44    15    16 1   
    45    15    82 1   
    46    15    83 1   
    47    16    17 1   
    48    16    84 1   
    49    16    85 1   
    50    17    18 1   
    51    17    86 1   
    52    17    87 1   
    53    18    19 2   
    54    18    20 1   
    55    20    21 1   
    56    21    22 1   
    57    21    34 1   
    58    21    88 1   
    59    22    23 1   
    60    22    89 1   
    61    22    90 1   
    62    23    24 1   
    63    24    25 1   
    64    24    26 1   
    65    24    27 1   
    66    27    28 1   
    67    28    29 1   
    68    28    91 1   
    69    28    92 1   
    70    29    30 1   
    71    29    93 1   
    72    29    94 1   
    73    30    31 1   
    74    30    32 1   
    75    30    33 1   
    76    31    95 1   
    77    31    96 1   
    78    31    97 1   
    79    32    98 1   
    80    32    99 1   
    81    32   100 1   
    82    33   101 1   
    83    33   102 1   
    84    33   103 1   
    85    34    35 1   
    86    34   104 1   
    87    34   105 1   
    88    35    36 1   
    89    36    37 2   
    90    36    38 1   
    91    38    39 1   
    92    38   106 1   
    93    38   107 1   
    94    39    40 1   
    95    39   108 1   
    96    39   109 1   
    97    40    41 1   
    98    40   110 1   
    99    40   111 1   
   100    41    42 1   
   101    41   112 1   
   102    41   113 1   
   103    42    43 1   
   104    42   114 1   
   105    42   115 1   
   106    43    44 1   
   107    43   116 1   
   108    43   117 1   
   109    44    45 1   
   110    44   118 1   
   111    44   119 1   
   112    45    46 1   
   113    45   120 1   
   114    45   121 1   
   115    46    47 1   
   116    46   122 1   
   117    46   123 1   
   118    47    48 1   
   119    47   124 1   
   120    47   125 1   
   121    48    49 1   
   122    48   126 1   
   123    48   127 1   
   124    49    50 1   
   125    49   128 1   
   126    49   129 1   
   127    50    51 1   
   128    50   130 1   
   129    50   131 1   
   130    51    52 1   
   131    51   132 1   
   132    51   133 1   
   133    52   134 1   
   134    52   135 1   
   135    52   136 1   
@<TRIPOS>SUBSTRUCTURE
     1 PC7         1 TEMP              0 ****  ****    0 ROOT
