@<TRIPOS>MOLECULE
PC7
  136   135     1     0     0
SMALL
bcc


@<TRIPOS>ATOM
      1 C48         18.6600     7.4900    -2.8060 c3         1 PC7      -0.088100
      2 C47         18.1390     6.1470    -2.3130 c3         1 PC7      -0.075400
      3 C46         16.6200     6.0450    -2.3680 c3         1 PC7      -0.075400
      4 C45         16.0860     4.7040    -1.8800 c3         1 PC7      -0.074400
      5 C44         14.5660     4.6130    -1.9120 c3         1 PC7      -0.074400
      6 C43         14.0320     3.2690    -1.4310 c3         1 PC7      -0.074400
      7 C42         12.5100     3.1960    -1.4170 c3         1 PC7      -0.074400
      8 C41         11.9750     1.8480    -0.9480 c3         1 PC7      -0.074400
      9 C40         10.4550     1.8080    -0.8510 c3         1 PC7      -0.074400
     10 C39          9.9120     0.4610    -0.3890 c3         1 PC7      -0.074400
     11 C38          8.4000     0.4620    -0.1960 c3         1 PC7      -0.073400
     12 C37          7.8430    -0.8770     0.2700 c3         1 PC7      -0.075400
     13 C36          6.3430    -0.8340     0.5340 c3         1 PC7      -0.073400
     14 C35          5.7640    -2.1610     1.0110 c3         1 PC7      -0.076400
     15 C34          4.2750    -2.0700     1.3160 c3         1 PC7      -0.071400
     16 C33          3.6630    -3.3840     1.7900 c3         1 PC7      -0.067400
     17 C32          2.1870    -3.2100     2.1010 c3         1 PC7      -0.127400
     18 C31          1.4710    -4.4650     2.5080 c          1 PC7       0.673100
     19 O31          1.9530    -5.5690     2.5500 o          1 PC7      -0.532000
     20 O2           0.2120    -4.1950     2.8470 os         1 PC7      -0.432900
     21 C2          -0.6710    -5.2570     3.2040 c3         1 PC7       0.111100
     22 C1          -1.2000    -5.9750     1.9710 c3         1 PC7       0.182400
     23 O3P         -1.8220    -5.0850     1.0690 os         1 PC7      -0.565200
     24 P           -1.1560    -4.8480    -0.4060 p5         1 PC7       1.383800
     25 O1P          0.3030    -4.5100    -0.2930 o          1 PC7      -0.811500
     26 O2P         -1.5940    -5.9190    -1.3550 o          1 PC7      -0.811500
     27 O4P         -2.0230    -3.4710    -0.6780 os         1 PC7      -0.560200
     28 C4          -1.7140    -2.7010    -1.8140 c3         1 PC7       0.192400
     29 C5          -1.6960    -1.2210    -1.5020 c3         1 PC7       0.113800
     30 N           -0.5860    -0.7120    -0.6180 n4         1 PC7      -0.598800
     31 C7           0.7440    -1.1760    -1.1020 c3         1 PC7       0.100767
     32 C8          -0.6250     0.7770    -0.6780 c3         1 PC7       0.100767
     33 C6          -0.7660    -1.1240     0.8050 c3         1 PC7       0.100767
     34 C3          -1.7290    -4.6490     4.1030 c3         1 PC7       0.151400
     35 O3          -2.4120    -3.5730     3.4700 os         1 PC7      -0.424900
     36 C11         -3.6250    -3.7690     2.9570 c          1 PC7       0.669100
     37 O11         -4.2670    -4.7770     3.1120 o          1 PC7      -0.529000
     38 C12         -4.0770    -2.5770     2.1630 c3         1 PC7      -0.141400
     39 C13         -5.5830    -2.3590     2.1540 c3         1 PC7      -0.068400
     40 C14         -5.9610    -1.1780     1.2680 c3         1 PC7      -0.073400
     41 C15         -7.4440    -0.8330     1.3190 c3         1 PC7      -0.075400
     42 C16         -7.8060     0.3380     0.4130 c3         1 PC7      -0.073400
     43 C17         -9.2540     0.7920     0.5540 c3         1 PC7      -0.074400
     44 C18         -9.6070     1.9500    -0.3720 c3         1 PC7      -0.074400
     45 C19        -11.0170     2.4870    -0.1630 c3         1 PC7      -0.074400
     46 C20        -11.3680     3.6310    -1.1060 c3         1 PC7      -0.073400
     47 C21        -12.7530     4.2150    -0.8590 c3         1 PC7      -0.074400
     48 C22        -13.1040     5.3510    -1.8130 c3         1 PC7      -0.074400
     49 C23        -14.4750     5.9600    -1.5510 c3         1 PC7      -0.074400
     50 C24        -14.8230     7.0910    -2.5100 c3         1 PC7      -0.075400
     51 C25        -16.1890     7.7120    -2.2450 c3         1 PC7      -0.074400
     52 C26        -16.5200     8.8420    -3.2110 c3         1 PC7      -0.088100
     53 H481        19.7460     7.5510    -2.7370 hc         1 PC7       0.031367
     54 H482        18.3850     7.6610    -3.8490 hc         1 PC7       0.031367
     55 H483        18.2450     8.3120    -2.2190 hc         1 PC7       0.031367
     56 H471        18.5780     5.3410    -2.9100 hc         1 PC7       0.036700
     57 H472        18.4750     5.9790    -1.2850 hc         1 PC7       0.036700
     58 H461        16.1820     6.8500    -1.7670 hc         1 PC7       0.036700
     59 H462        16.2820     6.2190    -3.3960 hc         1 PC7       0.036700
     60 H451        16.5120     3.8990    -2.4910 hc         1 PC7       0.037200
     61 H452        16.4370     4.5240    -0.8580 hc         1 PC7       0.037200
     62 H441        14.1430     5.4130    -1.2940 hc         1 PC7       0.036700
     63 H442        14.2110     4.8000    -2.9320 hc         1 PC7       0.036700
     64 H431        14.4310     2.4710    -2.0670 hc         1 PC7       0.037700
     65 H432        14.4110     3.0690    -0.4220 hc         1 PC7       0.037700
     66 H421        12.1190     3.9870    -0.7670 hc         1 PC7       0.036200
     67 H422        12.1250     3.4110    -2.4190 hc         1 PC7       0.036200
     68 H411        12.3210     1.0620    -1.6280 hc         1 PC7       0.038200
     69 H412        12.4030     1.6100     0.0320 hc         1 PC7       0.038200
     70 H401        10.1210     2.5880    -0.1570 hc         1 PC7       0.035700
     71 H402        10.0180     2.0620    -1.8230 hc         1 PC7       0.035700
     72 H391        10.1900    -0.3120    -1.1140 hc         1 PC7       0.039200
     73 H392        10.3950     0.1810     0.5540 hc         1 PC7       0.039200
     74 H381         8.1350     1.2350     0.5330 hc         1 PC7       0.033700
     75 H382         7.9110     0.7510    -1.1330 hc         1 PC7       0.033700
     76 H371         8.0620    -1.6460    -0.4790 hc         1 PC7       0.041200
     77 H372         8.3630    -1.1870     1.1840 hc         1 PC7       0.041200
     78 H361         6.1350    -0.0620     1.2830 hc         1 PC7       0.030700
     79 H362         5.8210    -0.5200    -0.3760 hc         1 PC7       0.030700
     80 H351         5.9380    -2.9300     0.2510 hc         1 PC7       0.045700
     81 H352         6.3000    -2.4900     1.9080 hc         1 PC7       0.045700
     82 H341         4.1110    -1.3000     2.0770 hc         1 PC7       0.022200
     83 H342         3.7430    -1.7290     0.4200 hc         1 PC7       0.022200
     84 H331         3.7950    -4.1470     1.0180 hc         1 PC7       0.063200
     85 H332         4.1980    -3.7390     2.6750 hc         1 PC7       0.063200
     86 H321         2.0450    -2.4570     2.8830 hc         1 PC7       0.056700
     87 H322         1.6620    -2.8330     1.2210 hc         1 PC7       0.056700
     88 H2          -0.1510    -6.0060     3.8120 h1         1 PC7       0.063700
     89 H11         -0.3800    -6.5300     1.5060 h1         1 PC7       0.053700
     90 H12         -1.9330    -6.7170     2.3000 h1         1 PC7       0.053700
     91 H41         -0.7740    -3.0020    -2.2850 h1         1 PC7       0.057200
     92 H42         -2.4910    -2.8230    -2.5760 h1         1 PC7       0.057200
     93 H51         -1.6000    -0.6870    -2.4480 hx         1 PC7       0.078700
     94 H52         -2.6330    -0.9080    -1.0400 hx         1 PC7       0.078700
     95 H71          0.8500    -0.9270    -2.1550 hx         1 PC7       0.095811
     96 H72          1.5160    -0.6650    -0.5320 hx         1 PC7       0.095811
     97 H73          0.8340    -2.2480    -0.9580 hx         1 PC7       0.095811
     98 H81         -1.6060     1.1240    -0.3620 hx         1 PC7       0.095811
     99 H82          0.1370     1.1810    -0.0170 hx         1 PC7       0.095811
    100 H83         -0.4320     1.1020    -1.6970 hx         1 PC7       0.095811
    101 H61         -0.6830    -2.1990     0.9020 hx         1 PC7       0.095811
    102 H62          0.0040    -0.6410     1.4010 hx         1 PC7       0.095811
    103 H63         -1.7430    -0.7970     1.1500 hx         1 PC7       0.095811
    104 H31         -2.4160    -5.4290     4.4350 h1         1 PC7       0.063200
    105 H32         -1.2500    -4.2270     4.9880 h1         1 PC7       0.063200
    106 H121        -3.5650    -1.6820     2.5210 hc         1 PC7       0.066200
    107 H122        -3.7180    -2.7440     1.1410 hc         1 PC7       0.066200
    108 H131        -6.0920    -3.2600     1.8050 hc         1 PC7       0.057200
    109 H132        -5.9330    -2.1770     3.1740 hc         1 PC7       0.057200
    110 H141        -5.3830    -0.2980     1.5710 hc         1 PC7       0.027200
    111 H142        -5.6670    -1.3920     0.2340 hc         1 PC7       0.027200
    112 H151        -8.0380    -1.7100     1.0420 hc         1 PC7       0.043700
    113 H152        -7.7200    -0.5920     2.3510 hc         1 PC7       0.043700
    114 H161        -7.1450     1.1830     0.6360 hc         1 PC7       0.032200
    115 H162        -7.6060     0.0660    -0.6300 hc         1 PC7       0.032200
    116 H171        -9.9270    -0.0500     0.3580 hc         1 PC7       0.040700
    117 H172        -9.4360     1.0890     1.5930 hc         1 PC7       0.040700
    118 H181        -8.8870     2.7630    -0.2230 hc         1 PC7       0.034700
    119 H182        -9.4880     1.6310    -1.4140 hc         1 PC7       0.034700
    120 H191       -11.7420     1.6750    -0.2890 hc         1 PC7       0.038700
    121 H192       -11.1210     2.8260     0.8740 hc         1 PC7       0.038700
    122 H201       -10.6190     4.4240    -1.0080 hc         1 PC7       0.035700
    123 H202       -11.3010     3.2800    -2.1420 hc         1 PC7       0.035700
    124 H211       -13.5050     3.4230    -0.9450 hc         1 PC7       0.037700
    125 H212       -12.8130     4.5770     0.1740 hc         1 PC7       0.037700
    126 H221       -12.3410     6.1340    -1.7400 hc         1 PC7       0.036200
    127 H222       -13.0610     4.9840    -2.8450 hc         1 PC7       0.036200
    128 H231       -15.2400     5.1770    -1.6190 hc         1 PC7       0.037200
    129 H232       -14.5150     6.3310    -0.5210 hc         1 PC7       0.037200
    130 H241       -14.0540     7.8700    -2.4470 hc         1 PC7       0.036200
    131 H242       -14.7890     6.7170    -3.5400 hc         1 PC7       0.036200
    132 H251       -16.9580     6.9370    -2.3100 hc         1 PC7       0.037200
    133 H252       -16.2220     8.0860    -1.2170 hc         1 PC7       0.037200
    134 H261       -16.5300     8.4850    -4.2430 hc         1 PC7       0.031700
    135 H262       -17.4970     9.2780    -3.0030 hc         1 PC7       0.031700
    136 H263       -15.7800     9.6430    -3.1490 hc         1 PC7       0.031700
@<TRIPOS>BOND
     1     1     2 1   
     2     1    53 1   
     3     1    54 1   
     4     1    55 1   
     5     2     3 1   
     6     2    56 1   
     7     2    57 1   
     8     3     4 1   
     9     3    58 1   
    10     3    59 1   
    11     4     5 1   
    12     4    60 1   
    13     4    61 1   
    14     5     6 1   
    15     5    62 1   
    16     5    63 1   
    17     6     7 1   
    18     6    64 1   
    19     6    65 1   
    20     7     8 1   
    21     7    66 1   
    22     7    67 1   
    23     8     9 1   
    24     8    68 1   
    25     8    69 1   
    26     9    10 1   
    27     9    70 1   
    28     9    71 1   
    29    10    11 1   
    30    10    72 1   
    31    10    73 1   
    32    11    12 1   
    33    11    74 1   
    34    11    75 1   
    35    12    13 1   
    36    12    76 1   
    37    12    77 1   
    38    13    14 1   
    39    13    78 1   
    40    13    79 1   
    41    14    15 1   
    42    14    80 1   
    43    14    81 1   
    44    15    16 1   
    45    15    82 1   
    46    15    83 1   
    47    16    17 1   
    48    16    84 1   
    49    16    85 1   
    50    17    18 1   
    51    17    86 1   
    52    17    87 1   
    53    18    19 2   
    54    18    20 1   
    55    20    21 1   
    56    21    22 1   
    57    21    34 1   
    58    21    88 1   
    59    22    23 1   
    60    22    89 1   
    61    22    90 1   
    62    23    24 1   
    63    24    25 1   
    64    24    26 1   
    65    24    27 1   
    66    27    28 1   
    67    28    29 1   
    68    28    91 1   
    69    28    92 1   
    70    29    30 1   
    71    29    93 1   
    72    29    94 1   
    73    30    31 1   
    74    30    32 1   
    75    30    33 1   
    76    31    95 1   
    77    31    96 1   
    78    31    97 1   
    79    32    98 1   
    80    32    99 1   
    81    32   100 1   
    82    33   101 1   
    83    33   102 1   
    84    33   103 1   
    85    34    35 1   
    86    34   104 1   
    87    34   105 1   
    88    35    36 1   
    89    36    37 2   
    90    36    38 1   
    91    38    39 1   
    92    38   106 1   
    93    38   107 1   
    94    39    40 1   
    95    39   108 1   
    96    39   109 1   
    97    40    41 1   
    98    40   110 1   
    99    40   111 1   
   100    41    42 1   
   101    41   112 1   
   102    41   113 1   
   103    42    43 1   
   104    42   114 1   
   105    42   115 1   
   106    43    44 1   
   107    43   116 1   
   108    43   117 1   
   109    44    45 1   
   110    44   118 1   
   111    44   119 1   
   112    45    46 1   
   113    45   120 1   
   114    45   121 1   
   115    46    47 1   
   116    46   122 1   
   117    46   123 1   
   118    47    48 1   
   119    47   124 1   
   120    47   125 1   
   121    48    49 1   
   122    48   126 1   
   123    48   127 1   
   124    49    50 1   
   125    49   128 1   
   126    49   129 1   
   127    50    51 1   
   128    50   130 1   
   129    50   131 1   
   130    51    52 1   
   131    51   132 1   
   132    51   133 1   
   133    52   134 1   
   134    52   135 1   
   135    52   136 1   
@<TRIPOS>SUBSTRUCTURE
     1 PC7         1 TEMP              0 ****  ****    0 ROOT
