@<TRIPOS>MOLECULE
PC8
   82    81     1     0     0
SMALL
bcc


@<TRIPOS>ATOM
      1 O1           2.2040     1.9510    -2.0960 o          1 PC8      -0.815500
      2 O2           0.7850     3.8970    -3.0530 o          1 PC8      -0.815500
      3 P1           1.0010     2.8450    -2.0100 p5         1 PC8       1.387800
      4 O3           0.9460     3.5120    -0.5000 os         1 PC8      -0.557200
      5 C1           2.0850     4.1800    -0.0150 c3         1 PC8       0.192400
      6 C2           2.3770     3.8290     1.4260 c3         1 PC8       0.115800
      7 N1           2.8600     2.4300     1.7180 n4         1 PC8      -0.598800
      8 C3           4.0340     2.0810     0.8720 c3         1 PC8       0.101100
      9 C4           3.2740     2.4010     3.1510 c3         1 PC8       0.101100
     10 C5           1.7850     1.4140     1.5220 c3         1 PC8       0.101100
     11 O4          -0.3650     1.9810    -1.7800 os         1 PC8      -0.568200
     12 C6          -1.2170     1.6900    -2.8650 c3         1 PC8       0.189400
     13 C7          -1.5100     0.2050    -2.9800 c3         1 PC8       0.130100
     14 C8          -0.3090    -0.6710    -3.2580 c3         1 PC8       0.147400
     15 O5           0.5110    -0.7580    -2.0990 os         1 PC8      -0.394900
     16 C9           1.7410    -1.2290    -2.2510 c          1 PC8       0.667100
     17 O6           2.1720    -1.6290    -3.3060 o          1 PC8      -0.548000
     18 C10          2.5230    -1.1900    -0.9690 c3         1 PC8      -0.140400
     19 C11          3.6400    -2.2190    -0.8940 c3         1 PC8      -0.071400
     20 C12          4.4610    -2.0640     0.3800 c3         1 PC8      -0.070400
     21 C13          5.5760    -3.0930     0.5060 c3         1 PC8      -0.078400
     22 C14          6.4050    -2.9180     1.7720 c3         1 PC8      -0.073400
     23 C15          7.5250    -3.9430     1.9080 c3         1 PC8      -0.075400
     24 C16          8.3520    -3.7480     3.1710 c3         1 PC8      -0.088100
     25 O7          -2.1460    -0.2960    -1.8000 os         1 PC8      -0.406900
     26 C17         -3.4680    -0.1850    -1.6810 c          1 PC8       0.644100
     27 O8          -4.1730     0.3060    -2.5270 o          1 PC8      -0.546000
     28 C18         -3.9500    -0.7390    -0.3680 c3         1 PC8      -0.136400
     29 C19         -5.4590    -0.6780    -0.2040 c3         1 PC8      -0.069400
     30 C20         -5.9160    -1.2120     1.1480 c3         1 PC8      -0.074400
     31 C21         -7.4290    -1.1660     1.3140 c3         1 PC8      -0.075400
     32 C22         -7.9070    -1.6790     2.6660 c3         1 PC8      -0.074400
     33 C23         -9.4210    -1.6280     2.8260 c3         1 PC8      -0.075400
     34 C24         -9.8920    -2.1380     4.1810 c3         1 PC8      -0.088100
     35 H1           2.9690     4.0160    -0.6380 h1         1 PC8       0.056700
     36 H2           1.9110     5.2600    -0.0130 h1         1 PC8       0.056700
     37 H3           3.1610     4.5000     1.7790 hx         1 PC8       0.079200
     38 H4           1.4970     3.9870     2.0500 hx         1 PC8       0.079200
     39 H5           4.8050     2.8360     0.9980 hx         1 PC8       0.095478
     40 H6           4.4200     1.1160     1.1940 hx         1 PC8       0.095478
     41 H7           3.7310     2.0200    -0.1690 hx         1 PC8       0.095478
     42 H8           3.6120     1.4010     3.4050 hx         1 PC8       0.095478
     43 H9           4.0810     3.1120     3.3050 hx         1 PC8       0.095478
     44 H10          2.4250     2.6720     3.7730 hx         1 PC8       0.095478
     45 H11          1.5550     1.3100     0.4690 hx         1 PC8       0.095478
     46 H12          2.1390     0.4630     1.9110 hx         1 PC8       0.095478
     47 H13          0.8980     1.7230     2.0690 hx         1 PC8       0.095478
     48 H14         -0.8020     2.0120    -3.8240 h1         1 PC8       0.049700
     49 H15         -2.1580     2.2320    -2.7370 h1         1 PC8       0.049700
     50 H16         -2.1720     0.0900    -3.8450 h1         1 PC8       0.067700
     51 H17          0.2380    -0.2500    -4.1040 h1         1 PC8       0.056700
     52 H18         -0.6430    -1.6720    -3.5460 h1         1 PC8       0.056700
     53 H19          1.8450    -1.2900    -0.1190 hc         1 PC8       0.067200
     54 H20          2.9370    -0.1780    -0.9100 hc         1 PC8       0.067200
     55 H21          4.2970    -2.1180    -1.7620 hc         1 PC8       0.059200
     56 H22          3.2200    -3.2280    -0.9380 hc         1 PC8       0.059200
     57 H23          3.8040    -2.1310     1.2540 hc         1 PC8       0.020200
     58 H24          4.8990    -1.0590     0.4040 hc         1 PC8       0.020200
     59 H25          6.2300    -3.0270    -0.3700 hc         1 PC8       0.046200
     60 H26          5.1440    -4.1000     0.4880 hc         1 PC8       0.046200
     61 H27          5.7500    -2.9810     2.6480 hc         1 PC8       0.029200
     62 H28          6.8340    -1.9100     1.7880 hc         1 PC8       0.029200
     63 H29          8.1760    -3.8840     1.0310 hc         1 PC8       0.041200
     64 H30          7.0960    -4.9500     1.9000 hc         1 PC8       0.041200
     65 H31          8.8250    -2.7640     3.1850 hc         1 PC8       0.030700
     66 H32          7.7310    -3.8240     4.0660 hc         1 PC8       0.030700
     67 H33          9.1420    -4.4950     3.2550 hc         1 PC8       0.030700
     68 H34         -3.5910    -1.7690    -0.2740 hc         1 PC8       0.068200
     69 H35         -3.4530    -0.1840     0.4340 hc         1 PC8       0.068200
     70 H36         -5.8000     0.3540    -0.3180 hc         1 PC8       0.054700
     71 H37         -5.9410    -1.2510    -1.0010 hc         1 PC8       0.054700
     72 H38         -5.5680    -2.2440     1.2740 hc         1 PC8       0.034200
     73 H39         -5.4430    -0.6340     1.9490 hc         1 PC8       0.034200
     74 H40         -7.7760    -0.1360     1.1740 hc         1 PC8       0.040700
     75 H41         -7.8980    -1.7520     0.5160 hc         1 PC8       0.040700
     76 H42         -7.5630    -2.7100     2.8080 hc         1 PC8       0.035200
     77 H43         -7.4380    -1.0930     3.4640 hc         1 PC8       0.035200
     78 H44         -9.7640    -0.5990     2.6830 hc         1 PC8       0.037700
     79 H45         -9.8880    -2.2160     2.0310 hc         1 PC8       0.037700
     80 H46         -9.6100    -3.1820     4.3300 hc         1 PC8       0.030700
     81 H47         -9.4500    -1.5600     4.9960 hc         1 PC8       0.030700
     82 H48        -10.9760    -2.0730     4.2810 hc         1 PC8       0.030700
@<TRIPOS>BOND
     1     1     3 1   
     2     2     3 1   
     3     3     4 1   
     4     3    11 1   
     5     4     5 1   
     6     5     6 1   
     7     5    35 1   
     8     5    36 1   
     9     6     7 1   
    10     6    37 1   
    11     6    38 1   
    12     7     8 1   
    13     7     9 1   
    14     7    10 1   
    15     8    39 1   
    16     8    40 1   
    17     8    41 1   
    18     9    42 1   
    19     9    43 1   
    20     9    44 1   
    21    10    45 1   
    22    10    46 1   
    23    10    47 1   
    24    11    12 1   
    25    12    13 1   
    26    12    48 1   
    27    12    49 1   
    28    13    14 1   
    29    13    25 1   
    30    13    50 1   
    31    14    15 1   
    32    14    51 1   
    33    14    52 1   
    34    15    16 1   
    35    16    17 2   
    36    16    18 1   
    37    18    19 1   
    38    18    53 1   
    39    18    54 1   
    40    19    20 1   
    41    19    55 1   
    42    19    56 1   
    43    20    21 1   
    44    20    57 1   
    45    20    58 1   
    46    21    22 1   
    47    21    59 1   
    48    21    60 1   
    49    22    23 1   
    50    22    61 1   
    51    22    62 1   
    52    23    24 1   
    53    23    63 1   
    54    23    64 1   
    55    24    65 1   
    56    24    66 1   
    57    24    67 1   
    58    25    26 1   
    59    26    27 2   
    60    26    28 1   
    61    28    29 1   
    62    28    68 1   
    63    28    69 1   
    64    29    30 1   
    65    29    70 1   
    66    29    71 1   
    67    30    31 1   
    68    30    72 1   
    69    30    73 1   
    70    31    32 1   
    71    31    74 1   
    72    31    75 1   
    73    32    33 1   
    74    32    76 1   
    75    32    77 1   
    76    33    34 1   
    77    33    78 1   
    78    33    79 1   
    79    34    80 1   
    80    34    81 1   
    81    34    82 1   
@<TRIPOS>SUBSTRUCTURE
     1 PC8         1 TEMP              0 ****  ****    0 ROOT
