@<TRIPOS>MOLECULE
PC8
   82    81     1     0     0
SMALL
No Charge or Current Charge


@<TRIPOS>ATOM
      1 O1           3.0180     4.1360    -2.0660 o          1 PC8      -0.815500
      2 O2           1.2930     5.2330    -3.4440 o          1 PC8      -0.815500
      3 P1           1.5580     4.2730    -2.3330 p5         1 PC8       1.387800
      4 O3           0.7550     4.6910    -0.9960 os         1 PC8      -0.580400
      5 C1           1.1250     4.1770     0.2970 c3         1 PC8       0.215600
      6 C2           0.7070     2.6900     0.4240 c3         1 PC8       0.087600
      7 N1           1.7540     1.6540     0.8680 n4         1 PC8      -0.486000
      8 C3           2.2640     1.9770     2.2800 c3         1 PC8       0.072900
      9 C4           1.1010     0.2700     0.8760 c3         1 PC8       0.072900
     10 C5           2.9300     1.6390    -0.1150 c3         1 PC8       0.072900
     11 O4           0.8680     2.8500    -2.6230 os         1 PC8      -0.591400
     12 C6          -0.4230     2.8330    -3.2520 c3         1 PC8       0.212600
     13 C7          -1.1160     1.4420    -3.0960 c3         1 PC8       0.153300
     14 C8          -0.3560     0.2390    -3.7190 c3         1 PC8       0.170600
     15 O5           0.8470    -0.0580    -2.9790 os         1 PC8      -0.418100
     16 C9           1.6100    -1.1120    -3.4060 c          1 PC8       0.618100
     17 O6           1.3190    -1.8460    -4.3410 o          1 PC8      -0.499000
     18 C10          2.8090    -1.3500    -2.4870 c3         1 PC8      -0.140400
     19 C11          2.4380    -2.2910    -1.3170 c3         1 PC8      -0.071400
     20 C12          3.5280    -2.3580    -0.2250 c3         1 PC8      -0.070400
     21 C13          3.1260    -3.2420     0.9750 c3         1 PC8      -0.078400
     22 C14          4.1970    -3.2720     2.0870 c3         1 PC8      -0.073400
     23 C15          3.7930    -4.1490     3.2910 c3         1 PC8      -0.075400
     24 C16          4.8610    -4.1770     4.4020 c3         1 PC8      -0.088100
     25 O7          -1.4060     1.1480    -1.7050 os         1 PC8      -0.430100
     26 C17         -2.4160     1.8320    -1.0780 c          1 PC8       0.595100
     27 O8          -3.1550     2.6370    -1.6270 o          1 PC8      -0.497000
     28 C18         -2.6130     1.3520     0.3610 c3         1 PC8      -0.136400
     29 C19         -3.6040     0.1670     0.4290 c3         1 PC8      -0.069400
     30 C20         -3.7910    -0.3770     1.8620 c3         1 PC8      -0.074400
     31 C21         -4.7750    -1.5650     1.9340 c3         1 PC8      -0.075400
     32 C22         -4.9590    -2.1120     3.3660 c3         1 PC8      -0.074400
     33 C23         -5.9420    -3.3000     3.4380 c3         1 PC8      -0.075400
     34 C24         -6.1250    -3.8460     4.8680 c3         1 PC8      -0.088100
     35 H1           2.2060     4.2730     0.4570 h1         1 PC8       0.056700
     36 H2           0.6300     4.7500     1.0900 h1         1 PC8       0.056700
     37 H3          -0.1200     2.6380     1.1340 hx         1 PC8       0.079200
     38 H4           0.3230     2.3530    -0.5380 hx         1 PC8       0.079200
     39 H5           1.4220     1.9840     2.9740 hx         1 PC8       0.095478
     40 H6           2.9840     1.2140     2.5840 hx         1 PC8       0.095478
     41 H7           2.7480     2.9560     2.2770 hx         1 PC8       0.095478
     42 H8           1.8460    -0.4790     1.1550 hx         1 PC8       0.095478
     43 H9           0.2830     0.2600     1.5990 hx         1 PC8       0.095478
     44 H10          0.7130     0.0530    -0.1230 hx         1 PC8       0.095478
     45 H11          3.4400     2.6030    -0.0880 hx         1 PC8       0.095478
     46 H12          3.6290     0.8490     0.1680 hx         1 PC8       0.095478
     47 H13          2.5480     1.4570    -1.1220 hx         1 PC8       0.095478
     48 H14         -0.3180     3.0470    -4.3240 h1         1 PC8       0.049700
     49 H15         -1.0720     3.6110    -2.8300 h1         1 PC8       0.049700
     50 H16         -2.0600     1.5040    -3.6540 h1         1 PC8       0.067700
     51 H17         -0.1160     0.4740    -4.7650 h1         1 PC8       0.056700
     52 H18         -1.0260    -0.6300    -3.7180 h1         1 PC8       0.056700
     53 H19          3.1150    -0.3910    -2.0600 hc         1 PC8       0.067200
     54 H20          3.6300    -1.7950    -3.0610 hc         1 PC8       0.067200
     55 H21          2.2510    -3.2990    -1.7090 hc         1 PC8       0.059200
     56 H22          1.4980    -1.9530    -0.8650 hc         1 PC8       0.059200
     57 H23          3.7420    -1.3450     0.1360 hc         1 PC8       0.020200
     58 H24          4.4560    -2.7440    -0.6650 hc         1 PC8       0.020200
     59 H25          2.9410    -4.2650     0.6230 hc         1 PC8       0.046200
     60 H26          2.1820    -2.8730     1.3960 hc         1 PC8       0.046200
     61 H27          4.3830    -2.2480     2.4340 hc         1 PC8       0.029200
     62 H28          5.1400    -3.6450     1.6680 hc         1 PC8       0.029200
     63 H29          3.6090    -5.1750     2.9490 hc         1 PC8       0.041200
     64 H30          2.8510    -3.7780     3.7130 hc         1 PC8       0.041200
     65 H31          5.8080    -4.5770     4.0200 hc         1 PC8       0.030700
     66 H32          5.0430    -3.1680     4.7910 hc         1 PC8       0.030700
     67 H33          4.5310    -4.8110     5.2340 hc         1 PC8       0.030700
     68 H34         -1.6560     0.9940     0.7530 hc         1 PC8       0.068200
     69 H35         -2.9970     2.1790     0.9690 hc         1 PC8       0.068200
     70 H36         -4.5760     0.4850     0.0320 hc         1 PC8       0.054700
     71 H37         -3.2440    -0.6420    -0.2190 hc         1 PC8       0.054700
     72 H38         -2.8170    -0.6930     2.2580 hc         1 PC8       0.034200
     73 H39         -4.1530     0.4310     2.5100 hc         1 PC8       0.034200
     74 H40         -5.7500    -1.2500     1.5400 hc         1 PC8       0.040700
     75 H41         -4.4130    -2.3720     1.2840 hc         1 PC8       0.040700
     76 H42         -3.9840    -2.4270     3.7590 hc         1 PC8       0.035200
     77 H43         -5.3210    -1.3050     4.0160 hc         1 PC8       0.035200
     78 H44         -6.9190    -2.9880     3.0480 hc         1 PC8       0.037700
     79 H45         -5.5830    -4.1100     2.7910 hc         1 PC8       0.037700
     80 H46         -5.1700    -4.2000     5.2730 hc         1 PC8       0.030700
     81 H47         -6.5180    -3.0680     5.5330 hc         1 PC8       0.030700
     82 H48         -6.8300    -4.6860     4.8680 hc         1 PC8       0.030700
@<TRIPOS>BOND
     1     1     3 1   
     2     2     3 1   
     3     3     4 1   
     4     3    11 1   
     5     4     5 1   
     6     5     6 1   
     7     5    35 1   
     8     5    36 1   
     9     6     7 1   
    10     6    37 1   
    11     6    38 1   
    12     7     8 1   
    13     7     9 1   
    14     7    10 1   
    15     8    39 1   
    16     8    40 1   
    17     8    41 1   
    18     9    42 1   
    19     9    43 1   
    20     9    44 1   
    21    10    45 1   
    22    10    46 1   
    23    10    47 1   
    24    11    12 1   
    25    12    13 1   
    26    12    48 1   
    27    12    49 1   
    28    13    14 1   
    29    13    25 1   
    30    13    50 1   
    31    14    15 1   
    32    14    51 1   
    33    14    52 1   
    34    15    16 1   
    35    16    17 2   
    36    16    18 1   
    37    18    19 1   
    38    18    53 1   
    39    18    54 1   
    40    19    20 1   
    41    19    55 1   
    42    19    56 1   
    43    20    21 1   
    44    20    57 1   
    45    20    58 1   
    46    21    22 1   
    47    21    59 1   
    48    21    60 1   
    49    22    23 1   
    50    22    61 1   
    51    22    62 1   
    52    23    24 1   
    53    23    63 1   
    54    23    64 1   
    55    24    65 1   
    56    24    66 1   
    57    24    67 1   
    58    25    26 1   
    59    26    27 2   
    60    26    28 1   
    61    28    29 1   
    62    28    68 1   
    63    28    69 1   
    64    29    30 1   
    65    29    70 1   
    66    29    71 1   
    67    30    31 1   
    68    30    72 1   
    69    30    73 1   
    70    31    32 1   
    71    31    74 1   
    72    31    75 1   
    73    32    33 1   
    74    32    76 1   
    75    32    77 1   
    76    33    34 1   
    77    33    78 1   
    78    33    79 1   
    79    34    80 1   
    80    34    81 1   
    81    34    82 1   
@<TRIPOS>SUBSTRUCTURE
     1 PC8         1 TEMP              0 ****  ****    0 ROOT
