@<TRIPOS>MOLECULE
PC9
  136   135     1     0     0
SMALL
No Charge or Current Charge


@<TRIPOS>ATOM
      1 C48        -16.2630     7.8910    -3.5230 c3         1 PC9      -0.088100
      2 C47        -15.5430     6.9480    -2.5400 c3         1 PC9      -0.075400
      3 C46        -14.1650     6.4760    -3.0540 c3         1 PC9      -0.075400
      4 C45        -13.4440     5.5310    -2.0680 c3         1 PC9      -0.074400
      5 C44        -12.0660     5.0590    -2.5820 c3         1 PC9      -0.074400
      6 C43        -11.3450     4.1130    -1.5960 c3         1 PC9      -0.074400
      7 C42         -9.9670     3.6410    -2.1100 c3         1 PC9      -0.074400
      8 C41         -9.2470     2.6950    -1.1240 c3         1 PC9      -0.074400
      9 C40         -7.8700     2.2220    -1.6380 c3         1 PC9      -0.074400
     10 C39         -7.1500     1.2750    -0.6530 c3         1 PC9      -0.076400
     11 C38         -5.7700     0.8030    -1.1700 c3         1 PC9      -0.075400
     12 C37         -5.0480    -0.1990    -0.2310 c3         1 PC9       0.109300
     13 Br2         -4.6010     0.6670     1.5210 br         1 PC9      -0.255000
     14 C36         -3.7930    -0.8520    -0.8790 c3         1 PC9       0.111300
     15 Br1         -2.3740     0.5110    -1.2650 br         1 PC9      -0.260000
     16 C35         -3.2140    -2.0250    -0.0440 c3         1 PC9      -0.075400
     17 C34         -2.1290    -2.8500    -0.7770 c3         1 PC9      -0.078400
     18 C33         -1.6120    -4.0400     0.0600 c3         1 PC9      -0.066400
     19 C32         -0.5200    -4.8590    -0.6670 c3         1 PC9      -0.139400
     20 C31         -0.0040    -6.0020     0.2100 c          1 PC9       0.597100
     21 O31         -0.5310    -7.1050     0.2590 o          1 PC9      -0.503000
     22 O2           0.9900    -5.5750     1.0500 os         1 PC9      -0.425100
     23 C2           1.6180    -6.5240     1.9540 c3         1 PC9       0.153300
     24 C1           2.4410    -7.5950     1.1600 c3         1 PC9       0.213600
     25 O3P          3.2470    -7.0460     0.0950 os         1 PC9      -0.577400
     26 P            4.7140    -6.4130     0.3130 p5         1 PC9       1.383800
     27 O1P          5.3740    -6.9750     1.5260 o          1 PC9      -0.816000
     28 O2P          5.5590    -6.5870    -0.9020 o          1 PC9      -0.816000
     29 O4P          4.3100    -4.8730     0.5240 os         1 PC9      -0.594400
     30 C4           3.7420    -4.1300    -0.5630 c3         1 PC9       0.216600
     31 C5           4.5280    -2.8090    -0.7600 c3         1 PC9       0.080600
     32 N            5.9830    -2.8320    -1.2800 n4         1 PC9      -0.488000
     33 C7           6.0690    -3.6160    -2.5980 c3         1 PC9       0.071233
     34 C8           6.4340    -1.3890    -1.5380 c3         1 PC9       0.071233
     35 C6           6.9250    -3.4680    -0.2500 c3         1 PC9       0.071233
     36 C3           2.3750    -5.7800     3.0970 c3         1 PC9       0.172600
     37 O3           2.6210    -4.4020     2.7510 os         1 PC9      -0.416100
     38 C11          3.2270    -3.6040     3.6810 c          1 PC9       0.614100
     39 O11          3.4810    -3.9470     4.8280 o          1 PC9      -0.496000
     40 C12          3.4310    -2.1790     3.1600 c3         1 PC9      -0.146400
     41 C13          4.9250    -1.8870     2.8900 c3         1 PC9      -0.069400
     42 C14          5.1660    -0.4970     2.2610 c3         1 PC9      -0.076400
     43 C15          6.6610    -0.1880     2.0330 c3         1 PC9      -0.078400
     44 C16          6.8960     1.1690     1.3330 c3         1 PC9      -0.074400
     45 C17          8.3860     1.4440     1.0400 c3         1 PC9      -0.075400
     46 C18          8.6230     2.7940     0.3290 c3         1 PC9      -0.074400
     47 C19         10.1130     3.0680     0.0320 c3         1 PC9      -0.074400
     48 C20         10.3490     4.4170    -0.6810 c3         1 PC9      -0.074400
     49 C21         11.8400     4.6900    -0.9780 c3         1 PC9      -0.074400
     50 C22         12.0760     6.0390    -1.6920 c3         1 PC9      -0.074400
     51 C23         13.5670     6.3120    -1.9900 c3         1 PC9      -0.074400
     52 C24         13.8030     7.6610    -2.7040 c3         1 PC9      -0.075400
     53 C25         15.2940     7.9350    -3.0020 c3         1 PC9      -0.074400
     54 C26         15.5300     9.2800    -3.7150 c3         1 PC9      -0.088100
     55 H481       -15.6660     8.7920    -3.7040 hc         1 PC9       0.031367
     56 H482       -16.4370     7.3910    -4.4840 hc         1 PC9       0.031367
     57 H483       -17.2340     8.1980    -3.1160 hc         1 PC9       0.031367
     58 H471       -16.1800     6.0740    -2.3530 hc         1 PC9       0.036700
     59 H472       -15.4160     7.4630    -1.5800 hc         1 PC9       0.036700
     60 H461       -13.5320     7.3520    -3.2420 hc         1 PC9       0.036700
     61 H462       -14.2960     5.9630    -4.0150 hc         1 PC9       0.036700
     62 H451       -14.0770     4.6550    -1.8800 hc         1 PC9       0.037200
     63 H452       -13.3130     6.0440    -1.1070 hc         1 PC9       0.037200
     64 H441       -11.4320     5.9340    -2.7700 hc         1 PC9       0.037200
     65 H442       -12.1970     4.5450    -3.5430 hc         1 PC9       0.037200
     66 H431       -11.9790     3.2380    -1.4080 hc         1 PC9       0.037200
     67 H432       -11.2140     4.6260    -0.6350 hc         1 PC9       0.037200
     68 H421        -9.3330     4.5160    -2.2970 hc         1 PC9       0.037200
     69 H422       -10.0980     3.1280    -3.0710 hc         1 PC9       0.037200
     70 H411        -9.8820     1.8190    -0.9370 hc         1 PC9       0.039200
     71 H412        -9.1160     3.2080    -0.1630 hc         1 PC9       0.039200
     72 H401        -7.2350     3.0970    -1.8250 hc         1 PC9       0.038700
     73 H402        -8.0010     1.7100    -2.6000 hc         1 PC9       0.038700
     74 H391        -7.7840     0.3990    -0.4680 hc         1 PC9       0.047200
     75 H392        -7.0300     1.7910     0.3080 hc         1 PC9       0.047200
     76 H381        -5.1300     1.6790    -1.3330 hc         1 PC9       0.057700
     77 H382        -5.9100     0.3290    -2.1490 hc         1 PC9       0.057700
     78 H37         -5.7560    -1.0000     0.0210 h1         1 PC9       0.079700
     79 H36         -4.0840    -1.2450    -1.8620 h1         1 PC9       0.077700
     80 H351        -4.0350    -2.6990     0.2330 hc         1 PC9       0.061200
     81 H352        -2.7970    -1.6360     0.8930 hc         1 PC9       0.061200
     82 H341        -1.2810    -2.2030    -1.0320 hc         1 PC9       0.045200
     83 H342        -2.5400    -3.2260    -1.7230 hc         1 PC9       0.045200
     84 H331        -2.4520    -4.7010     0.3110 hc         1 PC9       0.055200
     85 H332        -1.2080    -3.6640     1.0090 hc         1 PC9       0.055200
     86 H321         0.3110    -4.1780    -0.8830 hc         1 PC9       0.072200
     87 H322        -0.9340    -5.2730    -1.5930 hc         1 PC9       0.072200
     88 H2           0.8320    -7.0900     2.4720 h1         1 PC9       0.063700
     89 H11          3.0620    -8.1600     1.8670 h1         1 PC9       0.043200
     90 H12          1.7370    -8.3210     0.7340 h1         1 PC9       0.043200
     91 H41          3.7400    -4.7010    -1.5010 h1         1 PC9       0.065700
     92 H42          2.7000    -3.8790    -0.3310 h1         1 PC9       0.065700
     93 H51          3.9600    -2.2040    -1.4690 hx         1 PC9       0.079200
     94 H52          4.5330    -2.2770     0.1910 hx         1 PC9       0.079200
     95 H71          5.3980    -3.1650    -3.3310 hx         1 PC9       0.096367
     96 H72          7.0950    -3.5830    -2.9700 hx         1 PC9       0.096367
     97 H73          5.7800    -4.6530    -2.4210 hx         1 PC9       0.096367
     98 H81          6.3610    -0.8180    -0.6110 hx         1 PC9       0.096367
     99 H82          7.4680    -1.3900    -1.8890 hx         1 PC9       0.096367
    100 H83          5.7900    -0.9400    -2.2960 hx         1 PC9       0.096367
    101 H61          6.6540    -4.5150    -0.1100 hx         1 PC9       0.096367
    102 H62          7.9530    -3.4050    -0.6140 hx         1 PC9       0.096367
    103 H63          6.8360    -2.9390     0.6990 hx         1 PC9       0.096367
    104 H31          3.3170    -6.3000     3.3150 h1         1 PC9       0.063200
    105 H32          1.7580    -5.8340     4.0040 h1         1 PC9       0.063200
    106 H121         3.0610    -1.4710     3.9100 hc         1 PC9       0.074200
    107 H122         2.8790    -2.0560     2.2200 hc         1 PC9       0.074200
    108 H131         5.3270    -2.6620     2.2260 hc         1 PC9       0.052200
    109 H132         5.4810    -1.9600     3.8330 hc         1 PC9       0.052200
    110 H141         4.7370     0.2730     2.9150 hc         1 PC9       0.028200
    111 H142         4.6330    -0.4360     1.3050 hc         1 PC9       0.028200
    112 H151         7.1100    -0.9850     1.4300 hc         1 PC9       0.040700
    113 H152         7.1810    -0.1900     2.9980 hc         1 PC9       0.040700
    114 H161         6.4960     1.9730     1.9640 hc         1 PC9       0.032200
    115 H162         6.3350     1.1930     0.3910 hc         1 PC9       0.032200
    116 H171         8.7860     0.6340     0.4170 hc         1 PC9       0.039700
    117 H172         8.9480     1.4290     1.9830 hc         1 PC9       0.039700
    118 H181         8.2250     3.6040     0.9530 hc         1 PC9       0.035700
    119 H182         8.0590     2.8080    -0.6130 hc         1 PC9       0.035700
    120 H191        10.5110     2.2570    -0.5900 hc         1 PC9       0.038200
    121 H192        10.6760     3.0540     0.9740 hc         1 PC9       0.038200
    122 H201         9.9520     5.2280    -0.0580 hc         1 PC9       0.036700
    123 H202         9.7860     4.4300    -1.6220 hc         1 PC9       0.036700
    124 H211        12.2380     3.8790    -1.6000 hc         1 PC9       0.037700
    125 H212        12.4030     4.6780    -0.0360 hc         1 PC9       0.037700
    126 H221        11.6790     6.8510    -1.0700 hc         1 PC9       0.036700
    127 H222        11.5130     6.0520    -2.6340 hc         1 PC9       0.036700
    128 H231        13.9650     5.5010    -2.6110 hc         1 PC9       0.037200
    129 H232        14.1300     6.3000    -1.0480 hc         1 PC9       0.037200
    130 H241        13.4060     8.4730    -2.0830 hc         1 PC9       0.037200
    131 H242        13.2400     7.6730    -3.6460 hc         1 PC9       0.037200
    132 H251        15.6950     7.1260    -3.6250 hc         1 PC9       0.037200
    133 H252        15.8600     7.9260    -2.0620 hc         1 PC9       0.037200
    134 H261        16.6000     9.4290    -3.9050 hc         1 PC9       0.031700
    135 H262        15.0040     9.3060    -4.6770 hc         1 PC9       0.031700
    136 H263        15.1710    10.1140    -3.1000 hc         1 PC9       0.031700
@<TRIPOS>BOND
     1     1     2 1   
     2     1    55 1   
     3     1    56 1   
     4     1    57 1   
     5     2     3 1   
     6     2    58 1   
     7     2    59 1   
     8     3     4 1   
     9     3    60 1   
    10     3    61 1   
    11     4     5 1   
    12     4    62 1   
    13     4    63 1   
    14     5     6 1   
    15     5    64 1   
    16     5    65 1   
    17     6     7 1   
    18     6    66 1   
    19     6    67 1   
    20     7     8 1   
    21     7    68 1   
    22     7    69 1   
    23     8     9 1   
    24     8    70 1   
    25     8    71 1   
    26     9    10 1   
    27     9    72 1   
    28     9    73 1   
    29    10    11 1   
    30    10    74 1   
    31    10    75 1   
    32    11    12 1   
    33    11    76 1   
    34    11    77 1   
    35    12    13 1   
    36    12    14 1   
    37    12    78 1   
    38    14    15 1   
    39    14    16 1   
    40    14    79 1   
    41    16    17 1   
    42    16    80 1   
    43    16    81 1   
    44    17    18 1   
    45    17    82 1   
    46    17    83 1   
    47    18    19 1   
    48    18    84 1   
    49    18    85 1   
    50    19    20 1   
    51    19    86 1   
    52    19    87 1   
    53    20    21 2   
    54    20    22 1   
    55    22    23 1   
    56    23    24 1   
    57    23    36 1   
    58    23    88 1   
    59    24    25 1   
    60    24    89 1   
    61    24    90 1   
    62    25    26 1   
    63    26    27 1   
    64    26    28 1   
    65    26    29 1   
    66    29    30 1   
    67    30    31 1   
    68    30    91 1   
    69    30    92 1   
    70    31    32 1   
    71    31    93 1   
    72    31    94 1   
    73    32    33 1   
    74    32    34 1   
    75    32    35 1   
    76    33    95 1   
    77    33    96 1   
    78    33    97 1   
    79    34    98 1   
    80    34    99 1   
    81    34   100 1   
    82    35   101 1   
    83    35   102 1   
    84    35   103 1   
    85    36    37 1   
    86    36   104 1   
    87    36   105 1   
    88    37    38 1   
    89    38    39 2   
    90    38    40 1   
    91    40    41 1   
    92    40   106 1   
    93    40   107 1   
    94    41    42 1   
    95    41   108 1   
    96    41   109 1   
    97    42    43 1   
    98    42   110 1   
    99    42   111 1   
   100    43    44 1   
   101    43   112 1   
   102    43   113 1   
   103    44    45 1   
   104    44   114 1   
   105    44   115 1   
   106    45    46 1   
   107    45   116 1   
   108    45   117 1   
   109    46    47 1   
   110    46   118 1   
   111    46   119 1   
   112    47    48 1   
   113    47   120 1   
   114    47   121 1   
   115    48    49 1   
   116    48   122 1   
   117    48   123 1   
   118    49    50 1   
   119    49   124 1   
   120    49   125 1   
   121    50    51 1   
   122    50   126 1   
   123    50   127 1   
   124    51    52 1   
   125    51   128 1   
   126    51   129 1   
   127    52    53 1   
   128    52   130 1   
   129    52   131 1   
   130    53    54 1   
   131    53   132 1   
   132    53   133 1   
   133    54   134 1   
   134    54   135 1   
   135    54   136 1   
@<TRIPOS>SUBSTRUCTURE
     1 PC9         1 TEMP              0 ****  ****    0 ROOT
