@<TRIPOS>MOLECULE
PC9
  136   135     1     0     0
SMALL
bcc


@<TRIPOS>ATOM
      1 C48        -17.6920     7.5120    -4.2310 c3         1 PC9      -0.088100
      2 C47        -17.1840     6.1490    -3.7800 c3         1 PC9      -0.075400
      3 C46        -15.7390     6.1860    -3.2990 c3         1 PC9      -0.075400
      4 C45        -15.2160     4.8260    -2.8530 c3         1 PC9      -0.074400
      5 C44        -13.7730     4.8670    -2.3640 c3         1 PC9      -0.074400
      6 C43        -13.2480     3.5080    -1.9180 c3         1 PC9      -0.074400
      7 C42        -11.8090     3.5540    -1.4200 c3         1 PC9      -0.074400
      8 C41        -11.2840     2.1970    -0.9660 c3         1 PC9      -0.074400
      9 C40         -9.8510     2.2530    -0.4540 c3         1 PC9      -0.074400
     10 C39         -9.3300     0.8990     0.0150 c3         1 PC9      -0.076400
     11 C38         -7.9080     0.9940     0.5530 c3         1 PC9      -0.075400
     12 C37         -7.2900    -0.3340     0.9540 c3         1 PC9       0.026700
     13 BR2         -8.2160    -1.0850     2.5300 br         1 PC9      -0.172400
     14 C36         -5.7870    -0.3030     1.1700 c3         1 PC9       0.028700
     15 BR1         -5.3040     0.9560     2.6170 br         1 PC9      -0.177400
     16 C35         -5.1360    -1.6550     1.4070 c3         1 PC9      -0.075400
     17 C34         -3.6210    -1.6500     1.2520 c3         1 PC9      -0.078400
     18 C33         -3.0190    -3.0330     1.4690 c3         1 PC9      -0.066400
     19 C32         -1.5050    -3.0020     1.3340 c3         1 PC9      -0.139400
     20 C31         -0.8440    -4.3240     1.6100 c          1 PC9       0.646100
     21 O31         -1.4210    -5.3740     1.7500 o          1 PC9      -0.552000
     22 O2           0.4780    -4.1930     1.6800 os         1 PC9      -0.401900
     23 C2           1.2890    -5.3410     1.9550 c3         1 PC9       0.130100
     24 C1           1.6140    -6.1080     0.6850 c3         1 PC9       0.190400
     25 O3P          2.3210    -5.3360    -0.2630 os         1 PC9      -0.554200
     26 P            3.8620    -5.7510    -0.6330 p5         1 PC9       1.383800
     27 O1P          4.6590    -5.9500     0.6200 o          1 PC9      -0.816000
     28 O2P          3.8700    -6.8000    -1.7030 o          1 PC9      -0.816000
     29 O4P          4.2850    -4.2990    -1.2820 os         1 PC9      -0.571200
     30 C4           4.6630    -4.1370    -2.6260 c3         1 PC9       0.193400
     31 C5           6.0110    -3.4630    -2.7720 c3         1 PC9       0.108800
     32 N            7.2270    -4.2260    -2.3050 n4         1 PC9      -0.600800
     33 C7           7.2090    -5.6320    -2.7930 c3         1 PC9       0.099433
     34 C8           8.4230    -3.5410    -2.8770 c3         1 PC9       0.099433
     35 C6           7.3580    -4.2120    -0.8190 c3         1 PC9       0.099433
     36 C3           2.4820    -4.8580     2.7510 c3         1 PC9       0.149400
     37 O3           3.0960    -3.7750     2.0660 os         1 PC9      -0.392900
     38 C11          4.3190    -3.4150     2.4330 c          1 PC9       0.663100
     39 O11          4.9050    -3.9000     3.3690 o          1 PC9      -0.545000
     40 C12          4.8430    -2.3160     1.5520 c3         1 PC9      -0.146400
     41 C13          6.2190    -1.8030     1.9420 c3         1 PC9      -0.069400
     42 C14          6.6700    -0.6740     1.0230 c3         1 PC9      -0.076400
     43 C15          8.0630    -0.1520     1.3430 c3         1 PC9      -0.078400
     44 C16          8.5090     0.9610     0.4040 c3         1 PC9      -0.074400
     45 C17          9.8850     1.5230     0.7390 c3         1 PC9      -0.075400
     46 C18         10.3230     2.6320    -0.2090 c3         1 PC9      -0.074400
     47 C19         11.6910     3.2130     0.1300 c3         1 PC9      -0.074400
     48 C20         12.1220     4.3210    -0.8230 c3         1 PC9      -0.074400
     49 C21         13.4860     4.9120    -0.4880 c3         1 PC9      -0.074400
     50 C22         13.9110     6.0170    -1.4480 c3         1 PC9      -0.074400
     51 C23         15.2730     6.6150    -1.1180 c3         1 PC9      -0.074400
     52 C24         15.6950     7.7140    -2.0850 c3         1 PC9      -0.075400
     53 C25         17.0550     8.3200    -1.7590 c3         1 PC9      -0.074400
     54 C26         17.4640     9.4110    -2.7380 c3         1 PC9      -0.089100
     55 H481       -17.6410     8.2390    -3.4180 hc         1 PC9       0.031367
     56 H482       -17.0920     7.9010    -5.0560 hc         1 PC9       0.031367
     57 H483       -18.7270     7.4650    -4.5690 hc         1 PC9       0.031367
     58 H471       -17.2730     5.4360    -4.6050 hc         1 PC9       0.036700
     59 H472       -17.8220     5.7650    -2.9780 hc         1 PC9       0.036700
     60 H461       -15.6520     6.8970    -2.4700 hc         1 PC9       0.036700
     61 H462       -15.1000     6.5760    -4.1000 hc         1 PC9       0.036700
     62 H451       -15.2980     4.1170    -3.6840 hc         1 PC9       0.037200
     63 H452       -15.8580     4.4340    -2.0560 hc         1 PC9       0.037200
     64 H441       -13.6920     5.5760    -1.5320 hc         1 PC9       0.037200
     65 H442       -13.1310     5.2610    -3.1600 hc         1 PC9       0.037200
     66 H431       -13.3230     2.8000    -2.7500 hc         1 PC9       0.037200
     67 H432       -13.8940     3.1120    -1.1250 hc         1 PC9       0.037200
     68 H421       -11.7360     4.2650    -0.5890 hc         1 PC9       0.037200
     69 H422       -11.1630     3.9470    -2.2120 hc         1 PC9       0.037200
     70 H411       -11.3480     1.4870    -1.7980 hc         1 PC9       0.039200
     71 H412       -11.9350     1.8010    -0.1790 hc         1 PC9       0.039200
     72 H401        -9.7900     2.9680     0.3740 hc         1 PC9       0.038700
     73 H402        -9.1970     2.6430    -1.2410 hc         1 PC9       0.038700
     74 H391        -9.3640     0.1870    -0.8160 hc         1 PC9       0.047200
     75 H392       -10.0010     0.5070     0.7850 hc         1 PC9       0.047200
     76 H381        -7.8690     1.7030     1.3830 hc         1 PC9       0.057700
     77 H382        -7.2630     1.4040    -0.2340 hc         1 PC9       0.057700
     78 H37         -7.4600    -1.0670     0.1590 h1         1 PC9       0.079700
     79 H36         -5.3680     0.1460     0.2640 h1         1 PC9       0.077700
     80 H351        -5.5650    -2.3380     0.6650 hc         1 PC9       0.061200
     81 H352        -5.4130    -2.0520     2.3860 hc         1 PC9       0.061200
     82 H341        -3.1720    -0.9520     1.9640 hc         1 PC9       0.045200
     83 H342        -3.3600    -1.2840     0.2540 hc         1 PC9       0.045200
     84 H331        -3.4450    -3.7390     0.7520 hc         1 PC9       0.055200
     85 H332        -3.2920    -3.3950     2.4640 hc         1 PC9       0.055200
     86 H321        -1.0750    -2.2520     2.0040 hc         1 PC9       0.072200
     87 H322        -1.2190    -2.6890     0.3240 hc         1 PC9       0.072200
     88 H2           0.7480    -6.0380     2.6040 h1         1 PC9       0.063700
     89 H11          2.1590    -7.0080     0.9870 h1         1 PC9       0.043200
     90 H12          0.6830    -6.4490     0.2260 h1         1 PC9       0.043200
     91 H41          4.6360    -5.0790    -3.1770 h1         1 PC9       0.065700
     92 H42          3.9600    -3.4630    -3.1250 h1         1 PC9       0.065700
     93 H51          6.1610    -3.2720    -3.8350 hx         1 PC9       0.079200
     94 H52          6.0320    -2.5030    -2.2540 hx         1 PC9       0.079200
     95 H71          7.0900    -5.6340    -3.8740 hx         1 PC9       0.096367
     96 H72          8.1520    -6.1030    -2.5300 hx         1 PC9       0.096367
     97 H73          6.3920    -6.1810    -2.3340 hx         1 PC9       0.096367
     98 H81          8.4050    -2.4910    -2.5940 hx         1 PC9       0.096367
     99 H82          9.3220    -4.0090    -2.4880 hx         1 PC9       0.096367
    100 H83          8.4020    -3.6250    -3.9590 hx         1 PC9       0.096367
    101 H61          6.5340    -4.7350    -0.3470 hx         1 PC9       0.096367
    102 H62          8.2970    -4.6910    -0.5530 hx         1 PC9       0.096367
    103 H63          7.3800    -3.1790    -0.4810 hx         1 PC9       0.096367
    104 H31          3.1780    -5.6870     2.8840 h1         1 PC9       0.063200
    105 H32          2.1540    -4.5280     3.7410 h1         1 PC9       0.063200
    106 H121         4.1160    -1.4970     1.5580 hc         1 PC9       0.074200
    107 H122         4.8510    -2.6910     0.5250 hc         1 PC9       0.074200
    108 H131         6.9460    -2.6210     1.9050 hc         1 PC9       0.052200
    109 H132         6.2130    -1.4470     2.9750 hc         1 PC9       0.052200
    110 H141         5.9500     0.1490     1.0800 hc         1 PC9       0.028200
    111 H142         6.6400    -1.0120    -0.0210 hc         1 PC9       0.028200
    112 H151         8.7830    -0.9770     1.2970 hc         1 PC9       0.040700
    113 H152         8.0840     0.2110     2.3760 hc         1 PC9       0.040700
    114 H161         7.7720     1.7720     0.4270 hc         1 PC9       0.032200
    115 H162         8.5120     0.5860    -0.6260 hc         1 PC9       0.032200
    116 H171        10.6240     0.7140     0.7190 hc         1 PC9       0.039700
    117 H172         9.8800     1.9030     1.7660 hc         1 PC9       0.039700
    118 H181         9.5770     3.4350    -0.1970 hc         1 PC9       0.035700
    119 H182        10.3370     2.2480    -1.2350 hc         1 PC9       0.035700
    120 H191        12.4390     2.4130     0.1190 hc         1 PC9       0.038200
    121 H192        11.6770     3.6000     1.1550 hc         1 PC9       0.038200
    122 H201        11.3700     5.1190    -0.8150 hc         1 PC9       0.036700
    123 H202        12.1380     3.9320    -1.8480 hc         1 PC9       0.036700
    124 H211        14.2380     4.1160    -0.4940 hc         1 PC9       0.037700
    125 H212        13.4700     5.3050     0.5340 hc         1 PC9       0.037700
    126 H221        13.1570     6.8110    -1.4430 hc         1 PC9       0.036700
    127 H222        13.9270     5.6220    -2.4700 hc         1 PC9       0.036700
    128 H231        16.0280     5.8210    -1.1190 hc         1 PC9       0.037200
    129 H232        15.2570     7.0140    -0.0980 hc         1 PC9       0.037200
    130 H241        14.9380     8.5070    -2.0870 hc         1 PC9       0.037200
    131 H242        15.7130     7.3130    -3.1050 hc         1 PC9       0.037200
    132 H251        17.8110     7.5290    -1.7550 hc         1 PC9       0.037200
    133 H252        17.0350     8.7250    -0.7430 hc         1 PC9       0.037200
    134 H261        18.4350     9.8380    -2.4840 hc         1 PC9       0.031700
    135 H262        17.5300     9.0220    -3.7560 hc         1 PC9       0.031700
    136 H263        16.7370    10.2260    -2.7470 hc         1 PC9       0.031700
@<TRIPOS>BOND
     1     1     2 1   
     2     1    55 1   
     3     1    56 1   
     4     1    57 1   
     5     2     3 1   
     6     2    58 1   
     7     2    59 1   
     8     3     4 1   
     9     3    60 1   
    10     3    61 1   
    11     4     5 1   
    12     4    62 1   
    13     4    63 1   
    14     5     6 1   
    15     5    64 1   
    16     5    65 1   
    17     6     7 1   
    18     6    66 1   
    19     6    67 1   
    20     7     8 1   
    21     7    68 1   
    22     7    69 1   
    23     8     9 1   
    24     8    70 1   
    25     8    71 1   
    26     9    10 1   
    27     9    72 1   
    28     9    73 1   
    29    10    11 1   
    30    10    74 1   
    31    10    75 1   
    32    11    12 1   
    33    11    76 1   
    34    11    77 1   
    35    12    13 1   
    36    12    14 1   
    37    12    78 1   
    38    14    15 1   
    39    14    16 1   
    40    14    79 1   
    41    16    17 1   
    42    16    80 1   
    43    16    81 1   
    44    17    18 1   
    45    17    82 1   
    46    17    83 1   
    47    18    19 1   
    48    18    84 1   
    49    18    85 1   
    50    19    20 1   
    51    19    86 1   
    52    19    87 1   
    53    20    21 2   
    54    20    22 1   
    55    22    23 1   
    56    23    24 1   
    57    23    36 1   
    58    23    88 1   
    59    24    25 1   
    60    24    89 1   
    61    24    90 1   
    62    25    26 1   
    63    26    27 1   
    64    26    28 1   
    65    26    29 1   
    66    29    30 1   
    67    30    31 1   
    68    30    91 1   
    69    30    92 1   
    70    31    32 1   
    71    31    93 1   
    72    31    94 1   
    73    32    33 1   
    74    32    34 1   
    75    32    35 1   
    76    33    95 1   
    77    33    96 1   
    78    33    97 1   
    79    34    98 1   
    80    34    99 1   
    81    34   100 1   
    82    35   101 1   
    83    35   102 1   
    84    35   103 1   
    85    36    37 1   
    86    36   104 1   
    87    36   105 1   
    88    37    38 1   
    89    38    39 2   
    90    38    40 1   
    91    40    41 1   
    92    40   106 1   
    93    40   107 1   
    94    41    42 1   
    95    41   108 1   
    96    41   109 1   
    97    42    43 1   
    98    42   110 1   
    99    42   111 1   
   100    43    44 1   
   101    43   112 1   
   102    43   113 1   
   103    44    45 1   
   104    44   114 1   
   105    44   115 1   
   106    45    46 1   
   107    45   116 1   
   108    45   117 1   
   109    46    47 1   
   110    46   118 1   
   111    46   119 1   
   112    47    48 1   
   113    47   120 1   
   114    47   121 1   
   115    48    49 1   
   116    48   122 1   
   117    48   123 1   
   118    49    50 1   
   119    49   124 1   
   120    49   125 1   
   121    50    51 1   
   122    50   126 1   
   123    50   127 1   
   124    51    52 1   
   125    51   128 1   
   126    51   129 1   
   127    52    53 1   
   128    52   130 1   
   129    52   131 1   
   130    53    54 1   
   131    53   132 1   
   132    53   133 1   
   133    54   134 1   
   134    54   135 1   
   135    54   136 1   
@<TRIPOS>SUBSTRUCTURE
     1 PC9         1 TEMP              0 ****  ****    0 ROOT
