@<TRIPOS>MOLECULE
PCA
   15    15     1     0     0
SMALL
No Charge or Current Charge


@<TRIPOS>ATOM
      1 N           38.8480    57.8660    67.9590 ns         1 PCA      -0.465900
      2 CA          38.4130    59.0230    67.1410 c5         1 PCA      -0.050300
      3 CB          37.3550    59.7090    68.0760 c5         1 PCA      -0.067400
      4 CG          37.8460    59.2850    69.4820 c5         1 PCA      -0.169400
      5 CD          38.3880    57.8800    69.2480 c          1 PCA       0.564000
      6 OE          38.2500    56.8720    69.9240 o          1 PCA      -0.619000
      7 C           39.6840    59.9080    66.8400 c          1 PCA       0.705000
      8 O           39.9490    60.8780    67.5380 o          1 PCA      -0.720000
      9 OXT         40.3750    59.6110    65.8760 o          1 PCA      -0.720000
     10 H           39.1860    56.9860    67.5860 hn         1 PCA       0.307500
     11 HA          37.9670    58.7200    66.1850 h1         1 PCA       0.046700
     12 HB2         37.2880    60.7950    67.9450 hc         1 PCA       0.037700
     13 HB3         36.3560    59.3010    67.8840 hc         1 PCA       0.037700
     14 HG2         38.6870    59.9300    69.7600 hc         1 PCA       0.057700
     15 HG3         37.0890    59.3070    70.2730 hc         1 PCA       0.057700
@<TRIPOS>BOND
     1     1     2 1   
     2     1     5 1   
     3     1    10 1   
     4     2     3 1   
     5     2     7 1   
     6     2    11 1   
     7     3     4 1   
     8     3    12 1   
     9     3    13 1   
    10     4     5 1   
    11     4    14 1   
    12     4    15 1   
    13     5     6 2   
    14     7     8 1   
    15     7     9 1   
@<TRIPOS>SUBSTRUCTURE
     1 PCA         1 TEMP              0 ****  ****    0 ROOT
