@<TRIPOS>MOLECULE
PCA
   15    15     1     0     0
SMALL
bcc


@<TRIPOS>ATOM
      1 N           38.6870    57.7790    68.0160 ns         1 PCA      -0.532900
      2 CA          38.4570    58.9100    67.1420 c5         1 PCA      -0.050300
      3 CB          37.3720    59.6730    67.9230 c5         1 PCA      -0.067400
      4 CG          37.7000    59.3560    69.3780 c5         1 PCA      -0.169400
      5 CD          38.4100    58.0170    69.3100 c          1 PCA       0.706500
      6 OE          38.6840    57.2920    70.2530 o          1 PCA      -0.694500
      7 C           39.7110    59.7900    66.9080 c          1 PCA       0.915600
      8 O           40.7130    59.5620    67.6080 o          1 PCA      -0.825300
      9 OXT         39.5710    60.6690    66.0350 o          1 PCA      -0.825300
     10 H           39.3240    57.0400    67.7600 hn         1 PCA       0.307500
     11 HA          38.0760    58.5720    66.1760 h1         1 PCA       0.046700
     12 HB2         37.3710    60.7370    67.6950 hc         1 PCA       0.037700
     13 HB3         36.3860    59.2810    67.6690 hc         1 PCA       0.037700
     14 HG2         38.3890    60.0860    69.8120 hc         1 PCA       0.057700
     15 HG3         36.8290    59.3090    70.0320 hc         1 PCA       0.057700
@<TRIPOS>BOND
     1     1     2 1   
     2     1     5 1   
     3     1    10 1   
     4     2     3 1   
     5     2     7 1   
     6     2    11 1   
     7     3     4 1   
     8     3    12 1   
     9     3    13 1   
    10     4     5 1   
    11     4    14 1   
    12     4    15 1   
    13     5     6 2   
    14     7     8 1   
    15     7     9 1   
@<TRIPOS>SUBSTRUCTURE
     1 PCA         1 TEMP              0 ****  ****    0 ROOT
