@<TRIPOS>MOLECULE
PCB
   34    35     1     0     0
SMALL
bcc


@<TRIPOS>ATOM
      1 C1           0.0070    -0.0450     0.7270 cp         1 PCB       0.009000
      2 C2          -0.9310    -0.7910     1.4330 ca         1 PCB       0.024400
      3 CL2         -2.1400    -1.6760     0.5870 cl         1 PCB      -0.064900
      4 C3          -0.9010    -0.8450     2.8150 ca         1 PCB      -0.027000
      5 C4           0.0760    -0.1500     3.5100 ca         1 PCB      -0.238000
      6 C5           1.0260     0.5920     2.8170 ca         1 PCB       0.103400
      7 CL5          2.2840     1.4510     3.6170 cl         1 PCB      -0.061900
      8 C6           0.9890     0.6360     1.4330 ca         1 PCB      -0.117000
      9 S            0.0030    -0.2190     5.3000 sy         1 PCB       1.090800
     10 O1          -1.2000    -0.9720     5.6410 o          1 PCB      -0.580300
     11 O2           0.1470     1.1330     5.8200 o          1 PCB      -0.580300
     12 CM           1.4130    -1.1960     5.7580 c3         1 PCB      -0.225800
     13 C7          -0.0030     0.0210    -0.7500 cp         1 PCB       0.009000
     14 C8          -0.9530     0.7640    -1.4430 ca         1 PCB       0.024400
     15 Cl1         -2.1540     1.6440    -0.5810 cl         1 PCB      -0.064900
     16 C9          -0.9400     0.8210    -2.8250 ca         1 PCB      -0.027000
     17 C10          0.0310     0.1300    -3.5340 ca         1 PCB      -0.238000
     18 C11          0.9930    -0.6100    -2.8530 ca         1 PCB       0.103400
     19 Cl2          2.2420    -1.4660    -3.6690 cl         1 PCB      -0.061900
     20 C12          0.9720    -0.6560    -1.4680 ca         1 PCB      -0.117000
     21 S1          -0.0620     0.2030    -5.3220 sy         1 PCB       1.090800
     22 O3           0.0790    -1.1480    -5.8470 o          1 PCB      -0.580300
     23 O4          -1.2700     0.9540    -5.6480 o          1 PCB      -0.580300
     24 C13          1.3400     1.1840    -5.7930 c3         1 PCB      -0.225800
     25 H3          -1.6390    -1.4300     3.3460 ha         1 PCB       0.186000
     26 H6           1.7280     1.2130     0.8940 ha         1 PCB       0.160000
     27 HM1          1.4090    -1.2590     6.8460 h1         1 PCB       0.107533
     28 HM2          1.3090    -2.1880     5.3260 h1         1 PCB       0.107533
     29 HM3          2.3300    -0.7220     5.4190 h1         1 PCB       0.107533
     30 H1          -1.6860     1.4030    -3.3460 ha         1 PCB       0.186000
     31 H2           1.7200    -1.2310    -0.9390 ha         1 PCB       0.160000
     32 HM'1         1.3220     1.2540    -6.8800 h1         1 PCB       0.107533
     33 HM'2         1.2420     2.1740    -5.3530 h1         1 PCB       0.107533
     34 HM'3         2.2620     0.7090    -5.4690 h1         1 PCB       0.107533
@<TRIPOS>BOND
     1     1     2 ar  
     2     1     8 ar  
     3     1    13 1   
     4     2     3 1   
     5     2     4 ar  
     6     4     5 ar  
     7     4    25 1   
     8     5     6 ar  
     9     5     9 1   
    10     6     7 1   
    11     6     8 ar  
    12     8    26 1   
    13     9    10 2   
    14     9    11 2   
    15     9    12 1   
    16    12    27 1   
    17    12    28 1   
    18    12    29 1   
    19    13    14 ar  
    20    13    20 ar  
    21    14    15 1   
    22    14    16 ar  
    23    16    17 ar  
    24    16    30 1   
    25    17    18 ar  
    26    17    21 1   
    27    18    19 1   
    28    18    20 ar  
    29    20    31 1   
    30    21    22 2   
    31    21    23 2   
    32    21    24 1   
    33    24    32 1   
    34    24    33 1   
    35    24    34 1   
@<TRIPOS>SUBSTRUCTURE
     1 PCB         1 TEMP              0 ****  ****    0 ROOT
