@<TRIPOS>MOLECULE
PCB
   34    35     1     0     0
SMALL
No Charge or Current Charge


@<TRIPOS>ATOM
      1 C1          -0.0300    -0.0400     0.7340 cp         1 PCB       0.009000
      2 C2          -0.9890    -0.7920     1.4550 ca         1 PCB       0.116000
      3 Cl2         -2.2320    -1.7220     0.6180 cl         1 PCB      -0.156500
      4 C3          -0.9560    -0.8310     2.8580 ca         1 PCB      -0.009000
      5 C4           0.0330    -0.1220     3.5800 ca         1 PCB      -0.238000
      6 C5           1.0040     0.6190     2.8660 ca         1 PCB       0.195000
      7 Cl5          2.3060     1.5110     3.6540 cl         1 PCB      -0.153500
      8 C6           0.9640     0.6510     1.4620 ca         1 PCB      -0.099000
      9 S            0.0250    -0.2080     5.3860 sy         1 PCB       1.060000
     10 O1          -1.1530    -0.9710     5.8160 o          1 PCB      -0.509500
     11 O2           0.2930     1.1270     5.9360 o          1 PCB      -0.509500
     12 CM           1.4560    -1.2170     5.7740 c3         1 PCB      -0.336600
     13 C7          -0.0390     0.0200    -0.7550 cp         1 PCB       0.009000
     14 C8          -1.0090     0.7690    -1.4640 ca         1 PCB       0.116000
     15 Cl1         -2.2460     1.6950    -0.6120 cl         1 PCB      -0.156500
     16 C9          -0.9940     0.8080    -2.8680 ca         1 PCB      -0.009000
     17 C10         -0.0110     0.1020    -3.6020 ca         1 PCB      -0.238000
     18 C11          0.9710    -0.6360    -2.8990 ca         1 PCB       0.195000
     19 Cl3          2.2660    -1.5230    -3.7030 cl         1 PCB      -0.153500
     20 C12          0.9480    -0.6680    -1.4950 ca         1 PCB      -0.099000
     21 S1          -0.0410     0.1880    -5.4070 sy         1 PCB       1.060000
     22 O3           0.2250    -1.1460    -5.9610 o          1 PCB      -0.509500
     23 O4          -1.2270     0.9470    -5.8230 o          1 PCB      -0.509500
     24 C13          1.3820     1.2020    -5.8130 c3         1 PCB      -0.336600
     25 H3          -1.7100    -1.4210     3.3770 ha         1 PCB       0.168000
     26 H6           1.7150     1.2250     0.9250 ha         1 PCB       0.142000
     27 HM1          1.4980    -1.3400     6.8610 h1         1 PCB       0.107533
     28 HM2          1.3330    -2.1870     5.2810 h1         1 PCB       0.107533
     29 HM3          2.3550    -0.7100     5.4110 h1         1 PCB       0.107533
     30 H1          -1.7550     1.3960    -3.3770 ha         1 PCB       0.168000
     31 H2           1.7080    -1.2390    -0.9670 ha         1 PCB       0.142000
     32 HM'1         1.4100     1.3250    -6.9000 h1         1 PCB       0.107533
     33 HM'2         1.2610     2.1710    -5.3180 h1         1 PCB       0.107533
     34 HM'3         2.2870     0.6980    -5.4600 h1         1 PCB       0.107533
@<TRIPOS>BOND
     1     1     2 ar  
     2     1     8 ar  
     3     1    13 1   
     4     2     3 1   
     5     2     4 ar  
     6     4     5 ar  
     7     4    25 1   
     8     5     6 ar  
     9     5     9 1   
    10     6     7 1   
    11     6     8 ar  
    12     8    26 1   
    13     9    10 2   
    14     9    11 2   
    15     9    12 1   
    16    12    27 1   
    17    12    28 1   
    18    12    29 1   
    19    13    14 ar  
    20    13    20 ar  
    21    14    15 1   
    22    14    16 ar  
    23    16    17 ar  
    24    16    30 1   
    25    17    18 ar  
    26    17    21 1   
    27    18    19 1   
    28    18    20 ar  
    29    20    31 1   
    30    21    22 2   
    31    21    23 2   
    32    21    24 1   
    33    24    32 1   
    34    24    33 1   
    35    24    34 1   
@<TRIPOS>SUBSTRUCTURE
     1 PCB         1 TEMP              0 ****  ****    0 ROOT
