@<TRIPOS>MOLECULE
PCC
   15    15     1     0     0
SMALL
abcg2


@<TRIPOS>ATOM
      1 N           -0.7140     0.4160    -0.9800 ns         1 PCC      -0.465900
      2 CA           0.4870    -0.3680    -0.7960 c5         1 PCC      -0.051300
      3 CB          -0.0690    -1.5930    -0.0490 c5         1 PCC      -0.067400
      4 CG          -1.2200    -1.0080     0.7640 c5         1 PCC      -0.167400
      5 CD          -1.6480     0.2060    -0.0360 c          1 PCC       0.567000
      6 C            1.5590     0.3440     0.0610 c          1 PCC       0.702000
      7 O            1.1810     1.2870     0.7770 o          1 PCC      -0.720500
      8 OE1         -2.6580     0.8720     0.1400 o          1 PCC      -0.620000
      9 OXT          2.7060    -0.1400    -0.0190 o          1 PCC      -0.720500
     10 H           -0.6970     1.2820    -1.4960 hn         1 PCC       0.304500
     11 HA           0.9120    -0.6510    -1.7610 h1         1 PCC       0.048700
     12 HB2         -0.4510    -2.3220    -0.7670 hc         1 PCC       0.036200
     13 HB3          0.6880    -2.0910     0.5550 hc         1 PCC       0.036200
     14 HG2         -2.0520    -1.6940     0.9190 hc         1 PCC       0.059200
     15 HG3         -0.8900    -0.6640     1.7480 hc         1 PCC       0.059200
@<TRIPOS>BOND
     1     1     2 1   
     2     1     5 1   
     3     1    10 1   
     4     2     3 1   
     5     2     6 1   
     6     2    11 1   
     7     3     4 1   
     8     3    12 1   
     9     3    13 1   
    10     4     5 1   
    11     4    14 1   
    12     4    15 1   
    13     5     8 2   
    14     6     7 1   
    15     6     9 1   
@<TRIPOS>SUBSTRUCTURE
     1 PCC         1 TEMP              0 ****  ****    0 ROOT
