@<TRIPOS>MOLECULE
PCC
   15    15     1     0     0
SMALL
No Charge or Current Charge


@<TRIPOS>ATOM
      1 N           -0.5760     0.5360    -0.8740 ns         1 PCC      -0.465900
      2 CA           0.5290    -0.4400    -0.7190 c5         1 PCC      -0.051300
      3 CB          -0.1690    -1.6080     0.0640 c5         1 PCC      -0.067400
      4 CG          -1.2940    -0.8600     0.8210 c5         1 PCC      -0.167400
      5 CD          -1.7030     0.2320    -0.1600 c          1 PCC       0.567000
      6 C            1.6930     0.2680     0.0750 c          1 PCC       0.702000
      7 O            1.7880     0.1430     1.2880 o          1 PCC      -0.720500
      8 OE1         -2.8190     0.6190    -0.4690 o          1 PCC      -0.620000
      9 OXT          2.5100     0.9190    -0.5630 o          1 PCC      -0.720500
     10 H           -0.6620     1.1990    -1.6360 hn         1 PCC       0.304500
     11 HA           0.9260    -0.7850    -1.6830 h1         1 PCC       0.048700
     12 HB2         -0.6010    -2.3320    -0.6370 hc         1 PCC       0.036200
     13 HB3          0.5080    -2.1640     0.7230 hc         1 PCC       0.036200
     14 HG2         -2.1450    -1.4750     1.1300 hc         1 PCC       0.059200
     15 HG3         -0.8520    -0.3760     1.6990 hc         1 PCC       0.059200
@<TRIPOS>BOND
     1     1     2 1   
     2     1     5 1   
     3     1    10 1   
     4     2     3 1   
     5     2     6 1   
     6     2    11 1   
     7     3     4 1   
     8     3    12 1   
     9     3    13 1   
    10     4     5 1   
    11     4    14 1   
    12     4    15 1   
    13     5     8 2   
    14     6     7 1   
    15     6     9 1   
@<TRIPOS>SUBSTRUCTURE
     1 PCC         1 TEMP              0 ****  ****    0 ROOT
