@<TRIPOS>MOLECULE
PCE
   43    43     1     0     0
SMALL
No Charge or Current Charge


@<TRIPOS>ATOM
      1 N           -0.5800     1.7270    -0.8860 n8         1 PCE      -0.982200
      2 CA          -0.2020     0.2940    -0.8410 c3         1 PCE       0.125500
      3 CB           0.7680    -0.0130    -2.0210 c3         1 PCE      -0.108400
      4 CG           0.2540     0.2960    -3.4680 c6         1 PCE      -0.062700
      5 CD1          1.3720     0.0190    -4.5140 c6         1 PCE      -0.072400
      6 CD2         -1.0290    -0.5090    -3.8320 c6         1 PCE      -0.072400
      7 CE1          0.8960     0.3230    -5.9570 c6         1 PCE      -0.072900
      8 CE2         -1.5030    -0.2090    -5.2760 c6         1 PCE      -0.072900
      9 CZ          -0.3790    -0.4800    -6.3050 c6         1 PCE      -0.073400
     10 CH           0.3840    -0.1190     0.5620 c3         1 PCE       0.166300
     11 OH           0.7230    -1.5170     0.5660 oh         1 PCE      -0.666000
     12 CM          -0.5940     0.1610     1.7440 c3         1 PCE      -0.081400
     13 CA2         -0.0820    -0.2190     3.1710 c3         1 PCE      -0.186700
     14 CB2          1.1690     0.5990     3.6020 c3         1 PCE       0.019700
     15 CG2          1.7060     0.1990     4.9120 c1         1 PCE      -0.072100
     16 CD3          2.1740    -0.1240     5.9790 c1         1 PCE      -0.325000
     17 C           -1.2260    -0.0880     4.2060 c          1 PCE       0.720000
     18 O           -1.7150     1.0150     4.4050 o          1 PCE      -0.732500
     19 OXT         -1.6150    -1.1030     4.7650 o          1 PCE      -0.732500
     20 H            0.2690     2.2980    -0.8330 hn         1 PCE       0.384500
     21 H2          -0.9510     1.9360    -1.8190 hn         1 PCE       0.384500
     22 HA          -1.1210    -0.2900    -0.9900 h1         1 PCE       0.053700
     23 HB2          1.7010     0.5360    -1.8450 hc         1 PCE       0.048700
     24 HB3          1.0420    -1.0740    -1.9790 hc         1 PCE       0.048700
     25 HG           0.0180     1.3680    -3.5080 hc         1 PCE       0.034700
     26 HD12         2.2570     0.6290    -4.2880 hc         1 PCE       0.040700
     27 HD13         1.6930    -1.0300    -4.4490 hc         1 PCE       0.040700
     28 HD23        -0.8380    -1.5860    -3.7240 hc         1 PCE       0.040700
     29 HD22        -1.8440    -0.2660    -3.1370 hc         1 PCE       0.040700
     30 HE12         0.6980     1.3990    -6.0620 hc         1 PCE       0.033700
     31 HE13         1.6950     0.0810    -6.6710 hc         1 PCE       0.033700
     32 HE23        -1.8260     0.8380    -5.3490 hc         1 PCE       0.033700
     33 HE22        -2.3810    -0.8240    -5.5150 hc         1 PCE       0.033700
     34 HZ2         -0.7240    -0.2130    -7.3140 hc         1 PCE       0.033200
     35 HZ3         -0.1470    -1.5540    -6.3270 hc         1 PCE       0.033200
     36 HH           1.2930     0.4770     0.7190 h1         1 PCE       0.060700
     37 HO          -0.1210    -2.0160     0.5770 ho         1 PCE       0.436000
     38 HM1         -0.8530     1.2270     1.7470 hc         1 PCE       0.054200
     39 HM2         -1.5310    -0.3760     1.5540 hc         1 PCE       0.054200
     40 HA2          0.2070    -1.2760     3.1490 hc         1 PCE       0.047700
     41 HB21         1.9690     0.4770     2.8630 hc         1 PCE       0.041200
     42 HB22         0.9240     1.6680     3.6310 hc         1 PCE       0.041200
     43 HD31         2.5780    -0.4180     6.9280 ha         1 PCE       0.232000
@<TRIPOS>BOND
     1     1     2 1   
     2     1    20 1   
     3     1    21 1   
     4     2     3 1   
     5     2    10 1   
     6     2    22 1   
     7     3     4 1   
     8     3    23 1   
     9     3    24 1   
    10     4     5 1   
    11     4     6 1   
    12     4    25 1   
    13     5     7 1   
    14     5    26 1   
    15     5    27 1   
    16     6     8 1   
    17     6    28 1   
    18     6    29 1   
    19     7     9 1   
    20     7    30 1   
    21     7    31 1   
    22     8     9 1   
    23     8    32 1   
    24     8    33 1   
    25     9    34 1   
    26     9    35 1   
    27    10    11 1   
    28    10    12 1   
    29    10    36 1   
    30    11    37 1   
    31    12    13 1   
    32    12    38 1   
    33    12    39 1   
    34    13    14 1   
    35    13    17 1   
    36    13    40 1   
    37    14    15 1   
    38    14    41 1   
    39    14    42 1   
    40    15    16 3   
    41    16    43 1   
    42    17    18 1   
    43    17    19 1   
@<TRIPOS>SUBSTRUCTURE
     1 PCE         1 TEMP              0 ****  ****    0 ROOT
