@<TRIPOS>MOLECULE
PCE
   43    43     1     0     0
SMALL
bcc


@<TRIPOS>ATOM
      1 N           -0.3130     1.5980    -0.7480 n8         1 PCE      -0.871800
      2 CA          -0.1330     0.1530    -0.8240 c3         1 PCE       0.125500
      3 CB           0.7470    -0.3050    -1.9940 c3         1 PCE      -0.108400
      4 CG           0.3110     0.1970    -3.3700 c6         1 PCE      -0.062700
      5 CD1          1.3300    -0.2140    -4.4330 c6         1 PCE      -0.072400
      6 CD2         -1.0820    -0.2950    -3.7650 c6         1 PCE      -0.072400
      7 CE1          0.9360     0.2640    -5.8270 c6         1 PCE      -0.072900
      8 CE2         -1.4860     0.1820    -5.1570 c6         1 PCE      -0.072900
      9 CZ          -0.4580    -0.2230    -6.2080 c6         1 PCE      -0.073400
     10 CH           0.4270    -0.3240     0.5280 c3         1 PCE       0.143100
     11 OH           0.8640    -1.6690     0.4900 oh         1 PCE      -0.603800
     12 CM          -0.5740    -0.1070     1.6600 c3         1 PCE      -0.081400
     13 CA2          0.0040    -0.2940     3.0670 c3         1 PCE      -0.186700
     14 CB2          0.9140     0.8860     3.4320 c3         1 PCE       0.019700
     15 CG2          1.5400     0.7280     4.7380 c1         1 PCE      -0.072100
     16 CD3          2.0560     0.5760     5.8150 c1         1 PCE      -0.237500
     17 C           -1.1530    -0.4280     4.0770 c          1 PCE       0.930600
     18 O           -1.7670     0.6220     4.3560 o          1 PCE      -0.837800
     19 OXT         -1.4100    -1.5710     4.5040 o          1 PCE      -0.837800
     20 H            0.5850     2.0580    -0.8560 hn         1 PCE       0.329300
     21 H2          -0.8790     1.9200    -1.5220 hn         1 PCE       0.329300
     22 HA          -1.1340    -0.2820    -0.9430 h1         1 PCE       0.053700
     23 HB2          1.7760     0.0300    -1.8090 hc         1 PCE       0.048700
     24 HB3          0.7840    -1.3980    -2.0210 hc         1 PCE       0.048700
     25 HG           0.2880     1.2950    -3.3520 hc         1 PCE       0.034700
     26 HD12         2.3170     0.1770    -4.1670 hc         1 PCE       0.040700
     27 HD13         1.4220    -1.3070    -4.4360 hc         1 PCE       0.040700
     28 HD23        -1.0910    -1.3920    -3.7400 hc         1 PCE       0.040700
     29 HD22        -1.8280     0.0340    -3.0350 hc         1 PCE       0.040700
     30 HE12         0.9530     1.3600    -5.8500 hc         1 PCE       0.033700
     31 HE13         1.6700    -0.0720    -6.5630 hc         1 PCE       0.033700
     32 HE23        -1.5850     1.2730    -5.1520 hc         1 PCE       0.033700
     33 HE22        -2.4700    -0.2150    -5.4180 hc         1 PCE       0.033700
     34 HZ2         -0.7430     0.1680    -7.1870 hc         1 PCE       0.033200
     35 HZ3         -0.4480    -1.3150    -6.3010 hc         1 PCE       0.033200
     36 HH           1.3360     0.2590     0.7220 h1         1 PCE       0.060700
     37 HO           0.0860    -2.2320     0.4080 ho         1 PCE       0.397000
     38 HM1         -1.0060     0.8910     1.5700 hc         1 PCE       0.054200
     39 HM2         -1.4000    -0.8150     1.5120 hc         1 PCE       0.054200
     40 HA2          0.5970    -1.2120     3.0860 hc         1 PCE       0.047700
     41 HB21         1.7030     1.0150     2.6860 hc         1 PCE       0.041200
     42 HB22         0.3270     1.8070     3.4260 hc         1 PCE       0.041200
     43 HD31         2.5120     0.4440     6.7690 ha         1 PCE       0.144500
@<TRIPOS>BOND
     1     1     2 1   
     2     1    20 1   
     3     1    21 1   
     4     2     3 1   
     5     2    10 1   
     6     2    22 1   
     7     3     4 1   
     8     3    23 1   
     9     3    24 1   
    10     4     5 1   
    11     4     6 1   
    12     4    25 1   
    13     5     7 1   
    14     5    26 1   
    15     5    27 1   
    16     6     8 1   
    17     6    28 1   
    18     6    29 1   
    19     7     9 1   
    20     7    30 1   
    21     7    31 1   
    22     8     9 1   
    23     8    32 1   
    24     8    33 1   
    25     9    34 1   
    26     9    35 1   
    27    10    11 1   
    28    10    12 1   
    29    10    36 1   
    30    11    37 1   
    31    12    13 1   
    32    12    38 1   
    33    12    39 1   
    34    13    14 1   
    35    13    17 1   
    36    13    40 1   
    37    14    15 1   
    38    14    41 1   
    39    14    42 1   
    40    15    16 3   
    41    16    43 1   
    42    17    18 1   
    43    17    19 1   
@<TRIPOS>SUBSTRUCTURE
     1 PCE         1 TEMP              0 ****  ****    0 ROOT
