@<TRIPOS>MOLECULE
PCG
   35    38     1     0     0
SMALL
abcg2


@<TRIPOS>ATOM
      1 PA          -0.2390     0.9030     4.0600 p5         1 PCG       1.359200
      2 O1A          0.7530     0.9200     5.2920 oh         1 PCG      -0.724400
      3 O2A         -1.2300     1.9890     3.9650 o          1 PCG      -0.561000
      4 O5          -0.8590    -0.5760     4.1400 os         1 PCG      -0.599400
      5 C5          -1.2960    -1.2810     2.9650 c6         1 PCG       0.220600
      6 C4          -0.1160    -1.2660     2.0170 c5         1 PCG       0.068300
      7 O4          -0.3710    -1.8220     0.7470 os         1 PCG      -0.427000
      8 C3           0.2690     0.1680     1.6950 c5         1 PCG       0.154300
      9 O3           0.8070     0.8200     2.8290 os         1 PCG      -0.530400
     10 C2           1.2020    -0.0310     0.5200 c5         1 PCG       0.149300
     11 O2           2.4320    -0.4820     0.9940 oh         1 PCG      -0.685000
     12 C1           0.4140    -1.1540    -0.2130 c5         1 PCG       0.272300
     13 N9          -0.4680    -0.6290    -1.2340 na         1 PCG      -0.202500
     14 C8          -1.8160    -0.3680    -1.1700 cc         1 PCG       0.412400
     15 N7          -2.2810     0.1310    -2.2740 nd         1 PCG      -0.590000
     16 C7          -1.1970     0.2110    -3.1090 cd         1 PCG       0.098500
     17 C6          -1.0810     0.6840    -4.4490 c          1 PCG       0.522500
     18 O6          -1.9470     1.1330    -5.1790 o          1 PCG      -0.506000
     19 N1           0.2430     0.5770    -4.8950 ns         1 PCG      -0.458400
     20 C10          1.3020     0.0940    -4.1790 cd         1 PCG       0.741800
     21 N2           2.4860     0.0400    -4.8020 nv         1 PCG      -1.044200
     22 N3           1.1910    -0.3350    -2.9450 nc         1 PCG      -0.726100
     23 C9          -0.0610    -0.2570    -2.4770 cc         1 PCG       0.137400
     24 HO1A         0.5370     1.5830     5.9620 ho         1 PCG       0.492000
     25 H5'1        -2.1760    -0.7990     2.5290 h1         1 PCG       0.074700
     26 H5'2        -1.5710    -2.2830     3.2860 h1         1 PCG       0.074700
     27 H4           0.7230    -1.7790     2.5040 h1         1 PCG       0.100700
     28 H3          -0.6130     0.7140     1.3310 h1         1 PCG       0.072700
     29 H2           1.2940     0.8580    -0.1130 h1         1 PCG       0.083700
     30 HO2          3.0350    -0.5890     0.2510 ho         1 PCG       0.517000
     31 H1           1.1050    -1.8490    -0.7010 h2         1 PCG       0.106700
     32 H8          -2.4030    -0.5810    -0.2900 h5         1 PCG       0.066100
     33 HN1          0.4100     0.8920    -5.8430 hn         1 PCG       0.324500
     34 HN21         3.2970    -0.1660    -4.2450 hn         1 PCG       0.502500
     35 HN22         2.6450     0.5400    -5.6600 hn         1 PCG       0.502500
@<TRIPOS>BOND
     1     1     2 1   
     2     1     3 2   
     3     1     4 1   
     4     1     9 1   
     5     2    24 1   
     6     4     5 1   
     7     5     6 1   
     8     5    25 1   
     9     5    26 1   
    10     6     7 1   
    11     6     8 1   
    12     6    27 1   
    13     7    12 1   
    14     8     9 1   
    15     8    10 1   
    16     8    28 1   
    17    10    11 1   
    18    10    12 1   
    19    10    29 1   
    20    11    30 1   
    21    12    13 1   
    22    12    31 1   
    23    13    14 1   
    24    13    23 1   
    25    14    15 2   
    26    14    32 1   
    27    15    16 1   
    28    16    17 1   
    29    16    23 2   
    30    17    18 2   
    31    17    19 1   
    32    19    20 1   
    33    19    33 1   
    34    20    21 1   
    35    20    22 2   
    36    21    34 1   
    37    21    35 1   
    38    22    23 1   
@<TRIPOS>SUBSTRUCTURE
     1 PCG         1 TEMP              0 ****  ****    0 ROOT
