@<TRIPOS>MOLECULE
PCG
   35    38     1     0     0
SMALL
No Charge or Current Charge


@<TRIPOS>ATOM
      1 PA          -0.5900     0.3850     4.4140 p5         1 PCG       1.359200
      2 O1A          0.2570     0.3790     5.7490 oh         1 PCG      -0.724400
      3 O2A         -1.8670     1.1450     4.4340 o          1 PCG      -0.561000
      4 O5          -0.6770    -1.2050     4.1760 os         1 PCG      -0.599400
      5 C5          -0.9730    -1.6700     2.8330 c6         1 PCG       0.220600
      6 C4           0.0520    -1.0330     1.8690 c5         1 PCG       0.068300
      7 O4          -0.2080    -1.1770     0.4650 os         1 PCG      -0.427000
      8 C3           0.0850     0.4980     1.9940 c5         1 PCG       0.154300
      9 O3           0.5320     0.8160     3.3330 os         1 PCG      -0.530400
     10 C2           1.1420     0.8250     0.9050 c5         1 PCG       0.149300
     11 O2           2.4760     0.5350     1.3680 oh         1 PCG      -0.685000
     12 C1           0.6420    -0.1950    -0.2110 c5         1 PCG       0.272300
     13 N9          -0.0990     0.3640    -1.3430 na         1 PCG      -0.202500
     14 C8          -1.0360     1.3810    -1.3030 cc         1 PCG       0.412400
     15 N7          -1.4820     1.6830    -2.5180 nd         1 PCG      -0.590000
     16 C7          -0.7950     0.8360    -3.3800 cd         1 PCG       0.098500
     17 C6          -0.8470     0.6950    -4.8640 c          1 PCG       0.522500
     18 O6          -1.5620     1.3400    -5.6190 o          1 PCG      -0.506000
     19 N1           0.0130    -0.2620    -5.3220 ns         1 PCG      -0.458400
     20 C10          0.8110    -0.9890    -4.5150 cd         1 PCG       0.741800
     21 N2           1.6030    -1.8750    -5.0830 nv         1 PCG      -1.044200
     22 N3           0.9030    -0.9140    -3.2090 nc         1 PCG      -0.726100
     23 C9           0.0590     0.0320    -2.6630 cc         1 PCG       0.137400
     24 HO1A         0.7570    -0.4100     5.4750 ho         1 PCG       0.492000
     25 H5'1        -1.9990    -1.3830     2.5580 h1         1 PCG       0.074700
     26 H5'2        -0.8970    -2.7660     2.8010 h1         1 PCG       0.074700
     27 H4           1.0320    -1.4790     2.0940 h1         1 PCG       0.100700
     28 H3          -0.8880     0.9650     1.7820 h1         1 PCG       0.072700
     29 H2           1.0670     1.8690     0.5710 h1         1 PCG       0.083700
     30 HO2          2.4870     0.8020     2.3190 ho         1 PCG       0.517000
     31 H1           1.5140    -0.6990    -0.6450 h2         1 PCG       0.106700
     32 H8          -1.3500     1.8480    -0.3770 h5         1 PCG       0.066100
     33 HN1          0.0170    -0.4280    -6.3140 hn         1 PCG       0.324500
     34 HN21         2.3010    -2.2420    -4.4490 hn         1 PCG       0.502500
     35 HN22         1.9400    -1.6620    -6.0140 hn         1 PCG       0.502500
@<TRIPOS>BOND
     1     1     2 1   
     2     1     3 2   
     3     1     4 1   
     4     1     9 1   
     5     2    24 1   
     6     4     5 1   
     7     5     6 1   
     8     5    25 1   
     9     5    26 1   
    10     6     7 1   
    11     6     8 1   
    12     6    27 1   
    13     7    12 1   
    14     8     9 1   
    15     8    10 1   
    16     8    28 1   
    17    10    11 1   
    18    10    12 1   
    19    10    29 1   
    20    11    30 1   
    21    12    13 1   
    22    12    31 1   
    23    13    14 1   
    24    13    23 1   
    25    14    15 2   
    26    14    32 1   
    27    15    16 1   
    28    16    17 1   
    29    16    23 2   
    30    17    18 2   
    31    17    19 1   
    32    19    20 1   
    33    19    33 1   
    34    20    21 1   
    35    20    22 2   
    36    21    34 1   
    37    21    35 1   
    38    22    23 1   
@<TRIPOS>SUBSTRUCTURE
     1 PCG         1 TEMP              0 ****  ****    0 ROOT
