@<TRIPOS>MOLECULE
PCH
   43    44     1     0     0
SMALL
No Charge or Current Charge


@<TRIPOS>ATOM
      1 N            0.1150     2.0310    -1.1250 n8         1 PCH      -1.029200
      2 CA           0.1960     0.5470    -0.9830 c3         1 PCH       0.130500
      3 CB           0.9120    -0.0510    -2.2250 c3         1 PCH      -0.099400
      4 CG           0.2360     0.1780    -3.6170 c6         1 PCH      -0.062700
      5 CD1          1.1260    -0.3970    -4.7560 c6         1 PCH      -0.071900
      6 CD2         -1.1950    -0.4330    -3.6980 c6         1 PCH      -0.071900
      7 CE1          0.4880    -0.1780    -6.1510 c6         1 PCH      -0.073400
      8 CE2         -1.8320    -0.2200    -5.0940 c6         1 PCH      -0.073400
      9 CZ          -0.9320    -0.7880    -6.2170 c6         1 PCH      -0.075400
     10 CH           0.9260     0.1840     0.3480 c3         1 PCH       0.181300
     11 OH           1.9530     1.1730     0.4830 oh         1 PCH      -0.641000
     12 CM          -0.0240     0.2310     1.5750 c3         1 PCH       0.129600
     13 O1           0.6950    -0.2270     2.7380 os         1 PCH      -0.323100
     14 C1           0.1030    -0.3000     3.9810 ca         1 PCH       0.184100
     15 C2           0.8670    -0.7530     5.0600 ca         1 PCH      -0.232500
     16 C3           0.2780    -0.8330     6.3290 ca         1 PCH       0.364400
     17 N4          -1.0080    -0.4890     6.5630 nb         1 PCH      -0.692000
     18 C5          -1.7450    -0.0510     5.5180 ca         1 PCH       0.364400
     19 C6          -1.2360     0.0600     4.2170 ca         1 PCH      -0.232500
     20 HN1         -0.1110     2.2520    -2.1030 hn         1 PCH       0.408500
     21 HN2         -0.7130     2.3760    -0.6200 hn         1 PCH       0.408500
     22 HA          -0.8240     0.1370    -0.9500 h1         1 PCH       0.049700
     23 HB1          1.9350     0.3450    -2.2540 hc         1 PCH       0.055200
     24 HB2          1.0210    -1.1310    -2.0630 hc         1 PCH       0.055200
     25 HG           0.1610     1.2640    -3.7670 hc         1 PCH       0.038700
     26 HD11         2.1170     0.0760    -4.7330 hc         1 PCH       0.038950
     27 HD12         1.2910    -1.4710    -4.5950 hc         1 PCH       0.038950
     28 HD21        -1.1550    -1.5080    -3.4720 hc         1 PCH       0.038950
     29 HD22        -1.8490     0.0200    -2.9410 hc         1 PCH       0.038950
     30 HE11         0.4410     0.8980    -6.3720 hc         1 PCH       0.039450
     31 HE12         1.1240    -0.6280    -6.9260 hc         1 PCH       0.039450
     32 HE21        -2.0000     0.8530    -5.2630 hc         1 PCH       0.039450
     33 HE22        -2.8190    -0.7000    -5.1300 hc         1 PCH       0.039450
     34 HCZ1        -1.3820    -0.5820    -7.1970 hc         1 PCH       0.040700
     35 HCZ2        -0.8700    -1.8820    -6.1250 hc         1 PCH       0.040700
     36 HH           1.3480    -0.8290     0.2760 h1         1 PCH       0.078700
     37 HO           1.5840     1.8720    -0.1220 ho         1 PCH       0.459000
     38 HM1         -0.3890     1.2560     1.7210 h1         1 PCH       0.043200
     39 HM2         -0.8870    -0.4200     1.3830 h1         1 PCH       0.043200
     40 HC2          1.9040    -1.0410     4.9220 ha         1 PCH       0.130000
     41 HC3          0.8520    -1.1830     7.1870 h4         1 PCH       0.015600
     42 HC5         -2.7780     0.2190     5.7330 h4         1 PCH       0.015600
     43 HC6         -1.8860     0.4190     3.4270 ha         1 PCH       0.130000
@<TRIPOS>BOND
     1     1     2 1   
     2     1    20 1   
     3     1    21 1   
     4     2     3 1   
     5     2    10 1   
     6     2    22 1   
     7     3     4 1   
     8     3    23 1   
     9     3    24 1   
    10     4     5 1   
    11     4     6 1   
    12     4    25 1   
    13     5     7 1   
    14     5    26 1   
    15     5    27 1   
    16     6     8 1   
    17     6    28 1   
    18     6    29 1   
    19     7     9 1   
    20     7    30 1   
    21     7    31 1   
    22     8     9 1   
    23     8    32 1   
    24     8    33 1   
    25     9    34 1   
    26     9    35 1   
    27    10    11 1   
    28    10    12 1   
    29    10    36 1   
    30    11    37 1   
    31    12    13 1   
    32    12    38 1   
    33    12    39 1   
    34    13    14 1   
    35    14    15 ar  
    36    14    19 ar  
    37    15    16 ar  
    38    15    40 1   
    39    16    17 ar  
    40    16    41 1   
    41    17    18 ar  
    42    18    19 ar  
    43    18    42 1   
    44    19    43 1   
@<TRIPOS>SUBSTRUCTURE
     1 PCH         1 TEMP              0 ****  ****    0 ROOT
