@<TRIPOS>MOLECULE
PCH
   43    44     1     0     0
SMALL
abcg2


@<TRIPOS>ATOM
      1 N            0.0080     1.8910    -1.0040 n8         1 PCH      -1.029200
      2 CA           0.1950     0.4400    -0.9740 c3         1 PCH       0.130500
      3 CB           0.9040    -0.1090    -2.2110 c3         1 PCH      -0.099400
      4 CG           0.2090     0.1750    -3.5420 c6         1 PCH      -0.062700
      5 CD1          1.0690    -0.3240    -4.7040 c6         1 PCH      -0.071900
      6 CD2         -1.1860    -0.4480    -3.6150 c6         1 PCH      -0.071900
      7 CE1          0.4090    -0.0790    -6.0570 c6         1 PCH      -0.073400
      8 CE2         -1.8500    -0.2160    -4.9690 c6         1 PCH      -0.073400
      9 CZ          -0.9780    -0.7100    -6.1170 c6         1 PCH      -0.075400
     10 CH           0.9670     0.0880     0.3130 c3         1 PCH       0.181300
     11 OH           2.0510     0.9620     0.5010 oh         1 PCH      -0.641000
     12 CM           0.0130     0.1150     1.4960 c3         1 PCH       0.129600
     13 O1           0.7460    -0.2120     2.6680 os         1 PCH      -0.323100
     14 C1           0.1120    -0.2430     3.8400 ca         1 PCH       0.184100
     15 C2           0.8640    -0.6000     4.9630 ca         1 PCH      -0.232500
     16 C3           0.2390    -0.6430     6.1920 ca         1 PCH       0.364400
     17 N4          -1.0490    -0.3630     6.3880 nb         1 PCH      -0.692000
     18 C5          -1.7510    -0.0260     5.3150 ca         1 PCH       0.364400
     19 C6          -1.2370     0.0510     4.0290 ca         1 PCH      -0.232500
     20 HN1          0.5930     2.3140    -1.7120 hn         1 PCH       0.408500
     21 HN2         -0.9420     2.1280    -1.2500 hn         1 PCH       0.408500
     22 HA          -0.7900    -0.0320    -0.9000 h1         1 PCH       0.049700
     23 HB1          1.9220     0.2970    -2.2450 hc         1 PCH       0.055200
     24 HB2          1.0150    -1.1930    -2.0940 hc         1 PCH       0.055200
     25 HG           0.0990     1.2620    -3.6590 hc         1 PCH       0.038700
     26 HD11         2.0500     0.1580    -4.6690 hc         1 PCH       0.038950
     27 HD12         1.2460    -1.3990    -4.5790 hc         1 PCH       0.038950
     28 HD21        -1.1000    -1.5260    -3.4260 hc         1 PCH       0.038950
     29 HD22        -1.8270    -0.0460    -2.8260 hc         1 PCH       0.038950
     30 HE11         0.3220     1.0000    -6.2290 hc         1 PCH       0.039450
     31 HE12         1.0400    -0.4710    -6.8590 hc         1 PCH       0.039450
     32 HE21        -2.0380     0.8560    -5.0970 hc         1 PCH       0.039450
     33 HE22        -2.8270    -0.7050    -4.9940 hc         1 PCH       0.039450
     34 HCZ1        -1.4530    -0.4870    -7.0770 hc         1 PCH       0.040700
     35 HCZ2        -0.8840    -1.8000    -6.0620 hc         1 PCH       0.040700
     36 HH           1.3800    -0.9230     0.2250 h1         1 PCH       0.078700
     37 HO           1.6890     1.8470     0.3450 ho         1 PCH       0.459000
     38 HM1         -0.4430     1.1070     1.5900 h1         1 PCH       0.043200
     39 HM2         -0.7890    -0.6140     1.3360 h1         1 PCH       0.043200
     40 HC2          1.9160    -0.8360     4.8700 ha         1 PCH       0.130000
     41 HC3          0.8130    -0.9200     7.0700 h4         1 PCH       0.015600
     42 HC5         -2.8000     0.1990     5.4740 h4         1 PCH       0.015600
     43 HC6         -1.8920     0.3340     3.2170 ha         1 PCH       0.130000
@<TRIPOS>BOND
     1     1     2 1   
     2     1    20 1   
     3     1    21 1   
     4     2     3 1   
     5     2    10 1   
     6     2    22 1   
     7     3     4 1   
     8     3    23 1   
     9     3    24 1   
    10     4     5 1   
    11     4     6 1   
    12     4    25 1   
    13     5     7 1   
    14     5    26 1   
    15     5    27 1   
    16     6     8 1   
    17     6    28 1   
    18     6    29 1   
    19     7     9 1   
    20     7    30 1   
    21     7    31 1   
    22     8     9 1   
    23     8    32 1   
    24     8    33 1   
    25     9    34 1   
    26     9    35 1   
    27    10    11 1   
    28    10    12 1   
    29    10    36 1   
    30    11    37 1   
    31    12    13 1   
    32    12    38 1   
    33    12    39 1   
    34    13    14 1   
    35    14    15 ar  
    36    14    19 ar  
    37    15    16 ar  
    38    15    40 1   
    39    16    17 ar  
    40    16    41 1   
    41    17    18 ar  
    42    18    19 ar  
    43    18    42 1   
    44    19    43 1   
@<TRIPOS>SUBSTRUCTURE
     1 PCH         1 TEMP              0 ****  ****    0 ROOT
