@<TRIPOS>MOLECULE
PCI
   13    13     1     0     0
SMALL
abcg2


@<TRIPOS>ATOM
      1 O1           2.9570    -0.2170    -0.2240 oh         1 PCI      -0.501100
      2 C1           1.6380    -0.1320    -0.1050 ca         1 PCI       0.184100
      3 C2           0.9680    -0.1340     1.1180 ca         1 PCI       0.043500
      4 CL1          1.8990    -0.2480     2.5570 cl         1 PCI      -0.143000
      5 C3          -0.4170    -0.0450     1.1750 ca         1 PCI       0.164000
      6 CL2         -1.2040    -0.0560     2.6910 cl         1 PCI      -0.125500
      7 C4          -1.1590     0.0500     0.0030 ca         1 PCI       0.082000
      8 CL3         -2.8650     0.1630     0.0680 cl         1 PCI      -0.131000
      9 C5          -0.5000     0.0550    -1.2240 ca         1 PCI       0.164000
     10 CL4         -1.3960     0.1720    -2.6730 cl         1 PCI      -0.125500
     11 C6           0.8840    -0.0360    -1.2750 ca         1 PCI       0.043500
     12 CL5          1.7120    -0.0320    -2.7730 cl         1 PCI      -0.143000
     13 HO1          3.3900    -0.3100     0.6360 ho         1 PCI       0.489000
@<TRIPOS>BOND
     1     1     2 1   
     2     1    13 1   
     3     2     3 ar  
     4     2    11 ar  
     5     3     4 1   
     6     3     5 ar  
     7     5     6 1   
     8     5     7 ar  
     9     7     8 1   
    10     7     9 ar  
    11     9    10 1   
    12     9    11 ar  
    13    11    12 1   
@<TRIPOS>SUBSTRUCTURE
     1 PCI         1 TEMP              0 ****  ****    0 ROOT
