@<TRIPOS>MOLECULE
PCI
   13    13     1     0     0
SMALL
No Charge or Current Charge


@<TRIPOS>ATOM
      1 O1           3.0200    -0.2280    -0.1900 oh         1 PCI      -0.501100
      2 C1           1.6510    -0.1370    -0.1270 ca         1 PCI       0.184100
      3 C2           0.9970    -0.1410     1.1240 ca         1 PCI       0.043500
      4 Cl1          1.9500    -0.2660     2.6120 cl         1 PCI      -0.143000
      5 C3          -0.4090    -0.0470     1.1870 ca         1 PCI       0.164000
      6 Cl2         -1.2250    -0.0530     2.7570 cl         1 PCI      -0.125500
      7 C4          -1.1640     0.0520    -0.0000 ca         1 PCI       0.082000
      8 Cl3         -2.9290     0.1700     0.0790 cl         1 PCI      -0.131000
      9 C5          -0.5110     0.0570    -1.2510 ca         1 PCI       0.164000
     10 Cl4         -1.4570     0.1810    -2.7410 cl         1 PCI      -0.125500
     11 C6           0.8950    -0.0370    -1.3150 ca         1 PCI       0.043500
     12 Cl5          1.7160    -0.0310    -2.8850 cl         1 PCI      -0.143000
     13 HO1          3.3710    -0.2880     0.7250 ho         1 PCI       0.489000
@<TRIPOS>BOND
     1     1     2 1   
     2     1    13 1   
     3     2     3 ar  
     4     2    11 ar  
     5     3     4 1   
     6     3     5 ar  
     7     5     6 1   
     8     5     7 ar  
     9     7     8 1   
    10     7     9 ar  
    11     9    10 1   
    12     9    11 ar  
    13    11    12 1   
@<TRIPOS>SUBSTRUCTURE
     1 PCI         1 TEMP              0 ****  ****    0 ROOT
