@<TRIPOS>MOLECULE
PCJ
  167   166     1     0     0
SMALL
abcg2


@<TRIPOS>ATOM
      1 CB          -1.2840    -7.1360    -1.5300 c3         1 PCJ       0.042600
      2 SG          -0.5390    -7.6370     0.0500 ss         1 PCJ      -0.385000
      3 C           -3.4500    -6.4610    -2.6230 c3         1 PCJ       0.143600
      4 O           -2.7930    -5.4810    -3.3950 oh         1 PCJ      -0.671000
      5 N           -2.7100    -5.3520    -0.6000 ns         1 PCJ      -0.513900
      6 CA          -2.7030    -6.6140    -1.3050 c3         1 PCJ       0.127700
      7 C1           1.1530    -8.0290    -0.4740 c3         1 PCJ       0.033600
      8 C2           2.1320    -6.9280    -0.1010 c3         1 PCJ       0.172300
      9 O2           1.7020    -5.7180    -0.7260 os         1 PCJ      -0.455100
     10 C3           3.5300    -7.2460    -0.5870 c3         1 PCJ       0.156600
     11 O3           4.3750    -6.2010    -0.1140 os         1 PCJ      -0.445100
     12 C11         19.3080     6.8520    -2.5540 c3         1 PCJ      -0.088100
     13 C12         18.7390     5.4810    -2.8920 c3         1 PCJ      -0.074400
     14 C13         17.5810     5.0810    -1.9860 c3         1 PCJ      -0.075400
     15 C14         17.0000     3.7120    -2.3190 c3         1 PCJ      -0.074400
     16 C15         15.8310     3.3170    -1.4250 c3         1 PCJ      -0.074400
     17 C16         15.2440     1.9560    -1.7780 c3         1 PCJ      -0.075400
     18 C17         14.0510     1.5630    -0.9150 c3         1 PCJ      -0.073400
     19 C18         13.4550     0.2170    -1.3050 c3         1 PCJ      -0.074400
     20 C19         12.2250    -0.1680    -0.4920 c3         1 PCJ      -0.073400
     21 C20         11.6130    -1.4910    -0.9370 c3         1 PCJ      -0.075400
     22 C21         10.3390    -1.8600    -0.1870 c3         1 PCJ      -0.073400
     23 C22          9.7030    -3.1460    -0.7000 c3         1 PCJ      -0.074400
     24 C23          8.3880    -3.4870    -0.0100 c3         1 PCJ      -0.076400
     25 C24          7.7180    -4.7250    -0.5940 c3         1 PCJ      -0.068400
     26 C25          6.3780    -5.0040     0.0700 c3         1 PCJ      -0.137400
     27 C26          5.6420    -6.1770    -0.5180 c          1 PCJ       0.596100
     28 O28          6.1140    -7.0030    -1.2580 o          1 PCJ      -0.488000
     29 C31         -9.8050    10.2140     2.5160 c3         1 PCJ      -0.089100
     30 C32         -8.4600     9.5490     2.7760 c3         1 PCJ      -0.074400
     31 C33         -8.1190     8.4820     1.7440 c3         1 PCJ      -0.076400
     32 C34         -6.8000     7.7720     2.0190 c3         1 PCJ      -0.074400
     33 C35         -6.4700     6.6940     0.9950 c3         1 PCJ      -0.075400
     34 C36         -5.2150     5.9050     1.3440 c3         1 PCJ      -0.074400
     35 C37         -4.8730     4.8140     0.3380 c3         1 PCJ      -0.074400
     36 C38         -3.7090     3.9450     0.7950 c3         1 PCJ      -0.075400
     37 C39         -3.3180     2.8560    -0.1960 c3         1 PCJ      -0.073400
     38 C40         -2.2460     1.9280     0.3600 c3         1 PCJ      -0.076400
     39 C41         -1.8270     0.8100    -0.5860 c3         1 PCJ      -0.073400
     40 C42         -0.8420    -0.1500     0.0700 c3         1 PCJ      -0.077400
     41 C43         -0.4600    -1.3470    -0.7890 c3         1 PCJ      -0.074400
     42 C44          0.4290    -2.3230    -0.0270 c3         1 PCJ      -0.073400
     43 C45          0.7210    -3.5940    -0.8060 c3         1 PCJ      -0.139400
     44 C46          1.3710    -4.6670     0.0250 c          1 PCJ       0.607100
     45 O47          1.5500    -4.6040     1.2130 o          1 PCJ      -0.472000
     46 C51        -14.9640     9.5250     0.8190 c3         1 PCJ      -0.088100
     47 C52        -14.0800     8.5590     0.0420 c3         1 PCJ      -0.074400
     48 C53        -13.2570     7.6520     0.9480 c3         1 PCJ      -0.076400
     49 C54        -12.3630     6.6820     0.1880 c3         1 PCJ      -0.074400
     50 C55        -11.5370     5.7870     1.1030 c3         1 PCJ      -0.075400
     51 C56        -10.6090     4.8450     0.3470 c3         1 PCJ      -0.074400
     52 C57         -9.7350     3.9880     1.2570 c3         1 PCJ      -0.075400
     53 C58         -8.8570     3.0130     0.4820 c3         1 PCJ      -0.075400
     54 C59         -7.9260     2.1840     1.3590 c3         1 PCJ      -0.074400
     55 C60         -7.1740     1.1250     0.5650 c3         1 PCJ      -0.075400
     56 C61         -6.1800     0.3040     1.3780 c3         1 PCJ      -0.073400
     57 C62         -5.6820    -0.9080     0.6010 c3         1 PCJ      -0.075400
     58 C63         -4.5630    -1.6870     1.2780 c3         1 PCJ      -0.076400
     59 C64         -4.2910    -3.0120     0.5770 c3         1 PCJ      -0.070400
     60 C65         -3.0620    -3.7350     1.1350 c3         1 PCJ      -0.168400
     61 C66         -3.0060    -5.1840     0.7050 c          1 PCJ       0.610100
     62 O67         -3.2600    -6.1090     1.4590 o          1 PCJ      -0.589100
     63 H511       -14.3670    10.1730     1.4640 hc         1 PCJ       0.031367
     64 H512       -15.5420    10.1660     0.1520 hc         1 PCJ       0.031367
     65 H513       -15.6700     8.9890     1.4560 hc         1 PCJ       0.031367
     66 H521       -14.6990     7.9450    -0.6190 hc         1 PCJ       0.036700
     67 H522       -13.4060     9.1230    -0.6120 hc         1 PCJ       0.036700
     68 H531       -12.6390     8.2700     1.6100 hc         1 PCJ       0.037200
     69 H532       -13.9310     7.0880     1.6030 hc         1 PCJ       0.037200
     70 H541       -12.9770     6.0600    -0.4720 hc         1 PCJ       0.036700
     71 H542       -11.6900     7.2470    -0.4680 hc         1 PCJ       0.036700
     72 H551       -10.9450     6.4140     1.7780 hc         1 PCJ       0.037700
     73 H552       -12.2090     5.2030     1.7420 hc         1 PCJ       0.037700
     74 H561       -11.2040     4.1920    -0.3010 hc         1 PCJ       0.036700
     75 H562        -9.9660     5.4300    -0.3210 hc         1 PCJ       0.036700
     76 H571        -9.1040     4.6400     1.8730 hc         1 PCJ       0.038700
     77 H572       -10.3690     3.4310     1.9550 hc         1 PCJ       0.038700
     78 H581        -9.4980     2.3400    -0.0980 hc         1 PCJ       0.036700
     79 H582        -8.2590     3.5670    -0.2520 hc         1 PCJ       0.036700
     80 H591        -7.2160     2.8470     1.8680 hc         1 PCJ       0.039200
     81 H592        -8.5050     1.6960     2.1510 hc         1 PCJ       0.039200
     82 H601        -7.9050     0.4490     0.1050 hc         1 PCJ       0.035700
     83 H602        -6.6420     1.6020    -0.2680 hc         1 PCJ       0.035700
     84 H611        -5.3370     0.9350     1.6810 hc         1 PCJ       0.040200
     85 H612        -6.6520    -0.0330     2.3080 hc         1 PCJ       0.040200
     86 H621        -6.5310    -1.5780     0.4230 hc         1 PCJ       0.035700
     87 H622        -5.3370    -0.5910    -0.3910 hc         1 PCJ       0.035700
     88 H631        -3.6530    -1.0790     1.3010 hc         1 PCJ       0.043200
     89 H632        -4.8240    -1.8850     2.3230 hc         1 PCJ       0.043200
     90 H641        -5.1720    -3.6530     0.6820 hc         1 PCJ       0.040700
     91 H642        -4.1650    -2.8380    -0.4960 hc         1 PCJ       0.040700
     92 H651        -2.1540    -3.2140     0.8280 hc         1 PCJ       0.069700
     93 H652        -3.0850    -3.7120     2.2260 hc         1 PCJ       0.069700
     94 HN          -2.5580    -4.5300    -1.1650 hn         1 PCJ       0.318500
     95 HA          -3.2600    -7.3390    -0.7080 h1         1 PCJ       0.091700
     96 H1          -4.4850    -6.1770    -2.4020 h1         1 PCJ       0.033700
     97 H2A         -3.4780    -7.4320    -3.1310 h1         1 PCJ       0.033700
     98 HO          -3.3590    -5.2450    -4.1360 ho         1 PCJ       0.449000
     99 HB1         -0.6640    -6.3750    -2.0040 h1         1 PCJ       0.069200
    100 HB2         -1.3170    -8.0050    -2.1890 h1         1 PCJ       0.069200
    101 H11          1.4510    -8.9510     0.0250 h1         1 PCJ       0.077200
    102 H12          1.1600    -8.2250    -1.5480 h1         1 PCJ       0.077200
    103 H2           2.1430    -6.8100     0.9840 h1         1 PCJ       0.096700
    104 H31          3.8470    -8.2110    -0.1830 h1         1 PCJ       0.058700
    105 H32          3.5580    -7.3050    -1.6780 h1         1 PCJ       0.058700
    106 H251         6.5170    -5.2040     1.1380 hc         1 PCJ       0.073700
    107 H252         5.7320    -4.1240     0.0160 hc         1 PCJ       0.073700
    108 H241         7.5720    -4.5800    -1.6680 hc         1 PCJ       0.053700
    109 H242         8.3790    -5.5890    -0.4840 hc         1 PCJ       0.053700
    110 H231         8.5620    -3.6310     1.0620 hc         1 PCJ       0.038700
    111 H232         7.7050    -2.6340    -0.0950 hc         1 PCJ       0.038700
    112 H221         9.5260    -3.0500    -1.7770 hc         1 PCJ       0.039700
    113 H222        10.4060    -3.9770    -0.5820 hc         1 PCJ       0.039700
    114 H211        10.5570    -1.9570     0.8820 hc         1 PCJ       0.037700
    115 H212         9.6170    -1.0410    -0.2770 hc         1 PCJ       0.037700
    116 H201        11.3920    -1.4380    -2.0090 hc         1 PCJ       0.037700
    117 H202        12.3520    -2.2920    -0.8210 hc         1 PCJ       0.037700
    118 H191        12.4890    -0.2220     0.5700 hc         1 PCJ       0.037200
    119 H192        11.4730     0.6240    -0.5770 hc         1 PCJ       0.037200
    120 H181        13.1870     0.2380    -2.3670 hc         1 PCJ       0.037200
    121 H182        14.2180    -0.5630    -1.2020 hc         1 PCJ       0.037200
    122 H171        14.3530     1.5420     0.1380 hc         1 PCJ       0.037200
    123 H172        13.2790     2.3370    -0.9920 hc         1 PCJ       0.037200
    124 H161        14.9400     1.9570    -2.8310 hc         1 PCJ       0.037200
    125 H162        16.0240     1.1900    -1.6900 hc         1 PCJ       0.037200
    126 H151        16.1570     3.3150    -0.3790 hc         1 PCJ       0.037200
    127 H152        15.0470     4.0780    -1.4960 hc         1 PCJ       0.037200
    128 H141        16.6730     3.7030    -3.3650 hc         1 PCJ       0.036700
    129 H142        17.7880     2.9550    -2.2420 hc         1 PCJ       0.036700
    130 H131        17.9170     5.0900    -0.9430 hc         1 PCJ       0.036700
    131 H132        16.7910     5.8370    -2.0540 hc         1 PCJ       0.036700
    132 H121        18.4030     5.4690    -3.9330 hc         1 PCJ       0.036700
    133 H122        19.5300     4.7270    -2.8220 hc         1 PCJ       0.036700
    134 H111        20.1330     7.1200    -3.2140 hc         1 PCJ       0.031367
    135 H112        18.5460     7.6280    -2.6470 hc         1 PCJ       0.031367
    136 H113        19.6830     6.8810    -1.5280 hc         1 PCJ       0.031367
    137 H451        -0.2110    -4.0220    -1.1940 hc         1 PCJ       0.070200
    138 H452         1.3350    -3.3900    -1.6870 hc         1 PCJ       0.070200
    139 H441         1.3670    -1.8290     0.2430 hc         1 PCJ       0.055200
    140 H442        -0.0540    -2.5800     0.9190 hc         1 PCJ       0.055200
    141 H431        -1.3740    -1.8600    -1.1170 hc         1 PCJ       0.036200
    142 H432         0.0400    -1.0140    -1.7040 hc         1 PCJ       0.036200
    143 H421         0.0630     0.3950     0.3600 hc         1 PCJ       0.040200
    144 H422        -1.2820    -0.5150     1.0060 hc         1 PCJ       0.040200
    145 H411        -2.7160     0.2560    -0.9090 hc         1 PCJ       0.037700
    146 H412        -1.3880     1.2350    -1.4950 hc         1 PCJ       0.037700
    147 H401        -1.3640     2.5130     0.6430 hc         1 PCJ       0.037700
    148 H402        -2.6210     1.4820     1.2900 hc         1 PCJ       0.037700
    149 H391        -4.2050     2.2670    -0.4560 hc         1 PCJ       0.037700
    150 H392        -2.9710     3.3120    -1.1290 hc         1 PCJ       0.037700
    151 H381        -2.8380     4.5770     1.0000 hc         1 PCJ       0.037200
    152 H382        -3.9740     3.4790     1.7510 hc         1 PCJ       0.037200
    153 H371        -5.7530     4.1790     0.1810 hc         1 PCJ       0.038200
    154 H372        -4.6450     5.2660    -0.6330 hc         1 PCJ       0.038200
    155 H361        -4.3650     6.5900     1.4400 hc         1 PCJ       0.036200
    156 H362        -5.3460     5.4510     2.3330 hc         1 PCJ       0.036200
    157 H351        -7.3160     5.9990     0.9180 hc         1 PCJ       0.038200
    158 H352        -6.3610     7.1500     0.0050 hc         1 PCJ       0.038200
    159 H341        -5.9870     8.5060     2.0510 hc         1 PCJ       0.036700
    160 H342        -6.8370     7.3200     3.0180 hc         1 PCJ       0.036700
    161 H331        -8.9240     7.7400     1.7170 hc         1 PCJ       0.037700
    162 H332        -8.0930     8.9350     0.7470 hc         1 PCJ       0.037700
    163 H321        -7.6720    10.3080     2.7890 hc         1 PCJ       0.036700
    164 H322        -8.4610     9.0980     3.7740 hc         1 PCJ       0.036700
    165 H311       -10.0310    10.9750     3.2640 hc         1 PCJ       0.031367
    166 H312        -9.8250    10.6960     1.5370 hc         1 PCJ       0.031367
    167 H313       -10.6160     9.4820     2.5360 hc         1 PCJ       0.031367
@<TRIPOS>BOND
     1     1     2 1   
     2     1     6 1   
     3     1    99 1   
     4     1   100 1   
     5     2     7 1   
     6     3     4 1   
     7     3     6 1   
     8     3    96 1   
     9     3    97 1   
    10     4    98 1   
    11     5     6 1   
    12     5    61 1   
    13     5    94 1   
    14     6    95 1   
    15     7     8 1   
    16     7   101 1   
    17     7   102 1   
    18     8     9 1   
    19     8    10 1   
    20     8   103 1   
    21     9    44 1   
    22    10    11 1   
    23    10   104 1   
    24    10   105 1   
    25    11    27 1   
    26    12    13 1   
    27    12   134 1   
    28    12   135 1   
    29    12   136 1   
    30    13    14 1   
    31    13   132 1   
    32    13   133 1   
    33    14    15 1   
    34    14   130 1   
    35    14   131 1   
    36    15    16 1   
    37    15   128 1   
    38    15   129 1   
    39    16    17 1   
    40    16   126 1   
    41    16   127 1   
    42    17    18 1   
    43    17   124 1   
    44    17   125 1   
    45    18    19 1   
    46    18   122 1   
    47    18   123 1   
    48    19    20 1   
    49    19   120 1   
    50    19   121 1   
    51    20    21 1   
    52    20   118 1   
    53    20   119 1   
    54    21    22 1   
    55    21   116 1   
    56    21   117 1   
    57    22    23 1   
    58    22   114 1   
    59    22   115 1   
    60    23    24 1   
    61    23   112 1   
    62    23   113 1   
    63    24    25 1   
    64    24   110 1   
    65    24   111 1   
    66    25    26 1   
    67    25   108 1   
    68    25   109 1   
    69    26    27 1   
    70    26   106 1   
    71    26   107 1   
    72    27    28 2   
    73    29    30 1   
    74    29   165 1   
    75    29   166 1   
    76    29   167 1   
    77    30    31 1   
    78    30   163 1   
    79    30   164 1   
    80    31    32 1   
    81    31   161 1   
    82    31   162 1   
    83    32    33 1   
    84    32   159 1   
    85    32   160 1   
    86    33    34 1   
    87    33   157 1   
    88    33   158 1   
    89    34    35 1   
    90    34   155 1   
    91    34   156 1   
    92    35    36 1   
    93    35   153 1   
    94    35   154 1   
    95    36    37 1   
    96    36   151 1   
    97    36   152 1   
    98    37    38 1   
    99    37   149 1   
   100    37   150 1   
   101    38    39 1   
   102    38   147 1   
   103    38   148 1   
   104    39    40 1   
   105    39   145 1   
   106    39   146 1   
   107    40    41 1   
   108    40   143 1   
   109    40   144 1   
   110    41    42 1   
   111    41   141 1   
   112    41   142 1   
   113    42    43 1   
   114    42   139 1   
   115    42   140 1   
   116    43    44 1   
   117    43   137 1   
   118    43   138 1   
   119    44    45 2   
   120    46    47 1   
   121    46    63 1   
   122    46    64 1   
   123    46    65 1   
   124    47    48 1   
   125    47    66 1   
   126    47    67 1   
   127    48    49 1   
   128    48    68 1   
   129    48    69 1   
   130    49    50 1   
   131    49    70 1   
   132    49    71 1   
   133    50    51 1   
   134    50    72 1   
   135    50    73 1   
   136    51    52 1   
   137    51    74 1   
   138    51    75 1   
   139    52    53 1   
   140    52    76 1   
   141    52    77 1   
   142    53    54 1   
   143    53    78 1   
   144    53    79 1   
   145    54    55 1   
   146    54    80 1   
   147    54    81 1   
   148    55    56 1   
   149    55    82 1   
   150    55    83 1   
   151    56    57 1   
   152    56    84 1   
   153    56    85 1   
   154    57    58 1   
   155    57    86 1   
   156    57    87 1   
   157    58    59 1   
   158    58    88 1   
   159    58    89 1   
   160    59    60 1   
   161    59    90 1   
   162    59    91 1   
   163    60    61 1   
   164    60    92 1   
   165    60    93 1   
   166    61    62 2   
@<TRIPOS>SUBSTRUCTURE
     1 PCJ         1 TEMP              0 ****  ****    0 ROOT
