@<TRIPOS>MOLECULE
PCJ
  167   166     1     0     0
SMALL
No Charge or Current Charge


@<TRIPOS>ATOM
      1 CB          -0.9160    -7.8920    -1.2820 c3         1 PCJ       0.042600
      2 SG          -0.4590    -8.5840     0.3790 ss         1 PCJ      -0.385000
      3 C           -2.8360    -7.0400    -2.7650 c3         1 PCJ       0.143600
      4 O           -2.0780    -5.9370    -3.2950 oh         1 PCJ      -0.671000
      5 N           -2.5970    -6.2790    -0.3930 ns         1 PCJ      -0.513900
      6 CA          -2.3800    -7.4000    -1.3220 c3         1 PCJ       0.127700
      7 C1           1.2580    -9.1940     0.0080 c3         1 PCJ       0.033600
      8 C2           2.3530    -8.1560     0.3580 c3         1 PCJ       0.172300
      9 O2           1.9880    -6.9150    -0.2920 os         1 PCJ      -0.455100
     10 C3           3.7480    -8.6150    -0.1500 c3         1 PCJ       0.156600
     11 O3           4.7650    -7.7420     0.3770 os         1 PCJ      -0.445100
     12 C11         14.5420     9.3140    -1.7240 c3         1 PCJ      -0.088100
     13 C12         13.6210     8.2280    -2.3140 c3         1 PCJ      -0.074400
     14 C13         13.4640     7.0010    -1.3890 c3         1 PCJ      -0.075400
     15 C14         12.5410     5.9130    -1.9810 c3         1 PCJ      -0.074400
     16 C15         12.3850     4.6860    -1.0570 c3         1 PCJ      -0.074400
     17 C16         11.4620     3.5980    -1.6480 c3         1 PCJ      -0.075400
     18 C17         11.3060     2.3700    -0.7240 c3         1 PCJ      -0.073400
     19 C18         10.3830     1.2820    -1.3160 c3         1 PCJ      -0.074400
     20 C19         10.2280     0.0540    -0.3920 c3         1 PCJ      -0.073400
     21 C20          9.3070    -1.0350    -0.9850 c3         1 PCJ      -0.075400
     22 C21          9.1530    -2.2640    -0.0620 c3         1 PCJ      -0.073400
     23 C22          8.2330    -3.3540    -0.6560 c3         1 PCJ      -0.074400
     24 C23          8.0790    -4.5830     0.2660 c3         1 PCJ      -0.076400
     25 C24          7.1600    -5.6710    -0.3290 c3         1 PCJ      -0.068400
     26 C25          7.0000    -6.9020     0.5950 c3         1 PCJ      -0.137400
     27 C26          6.0590    -7.9360    -0.0240 c          1 PCJ       0.596100
     28 O28          6.4220    -8.8130    -0.7950 o          1 PCJ      -0.488000
     29 C31         -7.1840    10.9820     0.1650 c3         1 PCJ      -0.089100
     30 C32         -6.4720     9.8470     0.9260 c3         1 PCJ      -0.074400
     31 C33         -6.0210     8.6910     0.0070 c3         1 PCJ      -0.076400
     32 C34         -5.3250     7.5470     0.7740 c3         1 PCJ      -0.074400
     33 C35         -4.8800     6.3860    -0.1420 c3         1 PCJ      -0.075400
     34 C36         -4.1990     5.2360     0.6310 c3         1 PCJ      -0.074400
     35 C37         -3.7420     4.0780    -0.2830 c3         1 PCJ      -0.074400
     36 C38         -3.0780     2.9230     0.4980 c3         1 PCJ      -0.075400
     37 C39         -2.5830     1.7780    -0.4120 c3         1 PCJ      -0.073400
     38 C40         -1.9390     0.6180     0.3790 c3         1 PCJ      -0.076400
     39 C41         -1.3300    -0.4740    -0.5260 c3         1 PCJ      -0.073400
     40 C42         -0.7070    -1.6380     0.2760 c3         1 PCJ      -0.077400
     41 C43          0.1450    -2.5910    -0.5910 c3         1 PCJ      -0.074400
     42 C44          0.7580    -3.7530     0.2210 c3         1 PCJ      -0.073400
     43 C45          1.8500    -4.5330    -0.5490 c3         1 PCJ      -0.139400
     44 C46          2.3660    -5.7200     0.2670 c          1 PCJ       0.607100
     45 O47          3.0200    -5.5970     1.2930 o          1 PCJ      -0.472000
     46 C51        -11.5390    11.6230     1.7530 c3         1 PCJ      -0.088100
     47 C52        -11.1590    10.4120     0.8800 c3         1 PCJ      -0.074400
     48 C53        -10.4530     9.2920     1.6740 c3         1 PCJ      -0.076400
     49 C54        -10.0390     8.0930     0.7930 c3         1 PCJ      -0.074400
     50 C55         -9.3400     6.9700     1.5880 c3         1 PCJ      -0.075400
     51 C56         -8.8950     5.7880     0.6990 c3         1 PCJ      -0.074400
     52 C57         -8.1980     4.6620     1.4930 c3         1 PCJ      -0.075400
     53 C58         -7.7400     3.4900     0.5980 c3         1 PCJ      -0.075400
     54 C59         -7.0470     2.3580     1.3880 c3         1 PCJ      -0.074400
     55 C60         -6.5860     1.1920     0.4870 c3         1 PCJ      -0.075400
     56 C61         -5.9010     0.0520     1.2710 c3         1 PCJ      -0.073400
     57 C62         -5.4690    -1.1210     0.3640 c3         1 PCJ      -0.075400
     58 C63         -4.8000    -2.2780     1.1380 c3         1 PCJ      -0.076400
     59 C64         -4.4800    -3.4880     0.2340 c3         1 PCJ      -0.070400
     60 C65         -3.8320    -4.6710     0.9930 c3         1 PCJ      -0.168400
     61 C66         -3.8190    -5.9360     0.1310 c          1 PCJ       0.610100
     62 O67         -4.8230    -6.6070    -0.0600 o          1 PCJ      -0.589100
     63 H511       -10.6460    12.0710     2.2050 hc         1 PCJ       0.031367
     64 H512       -12.0390    12.3880     1.1490 hc         1 PCJ       0.031367
     65 H513       -12.2210    11.3220     2.5580 hc         1 PCJ       0.031367
     66 H521       -12.0660    10.0100     0.4130 hc         1 PCJ       0.036700
     67 H522       -10.5060    10.7520     0.0670 hc         1 PCJ       0.036700
     68 H531        -9.5620     9.7050     2.1630 hc         1 PCJ       0.037200
     69 H532       -11.1210     8.9400     2.4710 hc         1 PCJ       0.037200
     70 H541       -10.9300     7.6840     0.3000 hc         1 PCJ       0.036700
     71 H542        -9.3680     8.4450    -0.0010 hc         1 PCJ       0.036700
     72 H551        -8.4640     7.3820     2.1040 hc         1 PCJ       0.037700
     73 H552       -10.0220     6.6000     2.3640 hc         1 PCJ       0.037700
     74 H561        -9.7710     5.3760     0.1840 hc         1 PCJ       0.036700
     75 H562        -8.2130     6.1580    -0.0760 hc         1 PCJ       0.036700
     76 H571        -7.3290     5.0750     2.0200 hc         1 PCJ       0.038700
     77 H572        -8.8860     4.2830     2.2590 hc         1 PCJ       0.038700
     78 H581        -8.6090     3.0790     0.0700 hc         1 PCJ       0.036700
     79 H582        -7.0520     3.8690    -0.1680 hc         1 PCJ       0.036700
     80 H591        -6.1810     2.7670     1.9230 hc         1 PCJ       0.039200
     81 H592        -7.7390     1.9750     2.1470 hc         1 PCJ       0.039200
     82 H601        -7.4560     0.7880    -0.0470 hc         1 PCJ       0.035700
     83 H602        -5.8950     1.5740    -0.2730 hc         1 PCJ       0.035700
     84 H611        -5.0250     0.4470     1.7980 hc         1 PCJ       0.040200
     85 H612        -6.5920    -0.3230     2.0360 hc         1 PCJ       0.040200
     86 H621        -6.3510    -1.5050    -0.1630 hc         1 PCJ       0.035700
     87 H622        -4.7750    -0.7520    -0.4020 hc         1 PCJ       0.035700
     88 H631        -3.8790    -1.9190     1.6110 hc         1 PCJ       0.043200
     89 H632        -5.4690    -2.6020     1.9450 hc         1 PCJ       0.043200
     90 H641        -5.4130    -3.8310    -0.2310 hc         1 PCJ       0.040700
     91 H642        -3.8150    -3.1750    -0.5810 hc         1 PCJ       0.040700
     92 H651        -2.8100    -4.3880     1.2740 hc         1 PCJ       0.069700
     93 H652        -4.4240    -4.8770     1.8930 hc         1 PCJ       0.069700
     94 HN          -1.8200    -5.6660    -0.1910 hn         1 PCJ       0.318500
     95 HA          -3.0070    -8.2390    -0.9900 h1         1 PCJ       0.091700
     96 H1          -3.9050    -6.7890    -2.7480 h1         1 PCJ       0.033700
     97 H2A         -2.7180    -7.9240    -3.4060 h1         1 PCJ       0.033700
     98 HO          -2.4430    -5.7380    -4.1860 ho         1 PCJ       0.449000
     99 HB1         -0.2430    -7.0640    -1.5350 h1         1 PCJ       0.069200
    100 HB2         -0.7830    -8.6800    -2.0340 h1         1 PCJ       0.069200
    101 H11          1.4370   -10.1060     0.5920 h1         1 PCJ       0.077200
    102 H12          1.3240    -9.4600    -1.0550 h1         1 PCJ       0.077200
    103 H2           2.3740    -8.0470     1.4510 h1         1 PCJ       0.096700
    104 H31          3.9290    -9.6480     0.1760 h1         1 PCJ       0.058700
    105 H32          3.7510    -8.6010    -1.2480 h1         1 PCJ       0.058700
    106 H251         7.9820    -7.3590     0.7630 hc         1 PCJ       0.073700
    107 H252         6.5680    -6.5470     1.5380 hc         1 PCJ       0.073700
    108 H241         6.1700    -5.2390    -0.5260 hc         1 PCJ       0.053700
    109 H242         7.5630    -5.9970    -1.2970 hc         1 PCJ       0.053700
    110 H231         9.0700    -5.0140     0.4600 hc         1 PCJ       0.038700
    111 H232         7.6750    -4.2590     1.2330 hc         1 PCJ       0.038700
    112 H221         7.2430    -2.9220    -0.8500 hc         1 PCJ       0.039700
    113 H222         8.6370    -3.6770    -1.6240 hc         1 PCJ       0.039700
    114 H211        10.1430    -2.6950     0.1320 hc         1 PCJ       0.037700
    115 H212         8.7490    -1.9400     0.9050 hc         1 PCJ       0.037700
    116 H201         8.3170    -0.6040    -1.1780 hc         1 PCJ       0.037700
    117 H202         9.7100    -1.3600    -1.9520 hc         1 PCJ       0.037700
    118 H191        11.2180    -0.3780    -0.1980 hc         1 PCJ       0.037200
    119 H192         9.8250     0.3790     0.5750 hc         1 PCJ       0.037200
    120 H181         9.3940     1.7150    -1.5090 hc         1 PCJ       0.037200
    121 H182        10.7850     0.9560    -2.2830 hc         1 PCJ       0.037200
    122 H171        12.2950     1.9370    -0.5300 hc         1 PCJ       0.037200
    123 H172        10.9040     2.6960     0.2440 hc         1 PCJ       0.037200
    124 H161        10.4720     4.0310    -1.8410 hc         1 PCJ       0.037200
    125 H162        11.8630     3.2720    -2.6150 hc         1 PCJ       0.037200
    126 H151        13.3740     4.2520    -0.8630 hc         1 PCJ       0.037200
    127 H152        11.9830     5.0120    -0.0890 hc         1 PCJ       0.037200
    128 H141        11.5520     6.3470    -2.1740 hc         1 PCJ       0.036700
    129 H142        12.9430     5.5870    -2.9480 hc         1 PCJ       0.036700
    130 H131        14.4540     6.5670    -1.1960 hc         1 PCJ       0.036700
    131 H132        13.0630     7.3280    -0.4220 hc         1 PCJ       0.036700
    132 H121        12.6340     8.6660    -2.5080 hc         1 PCJ       0.036700
    133 H122        14.0250     7.9060    -3.2810 hc         1 PCJ       0.036700
    134 H111        14.6230    10.1620    -2.4140 hc         1 PCJ       0.031367
    135 H112        14.1460     9.6830    -0.7710 hc         1 PCJ       0.031367
    136 H113        15.5500     8.9160    -1.5500 hc         1 PCJ       0.031367
    137 H451         1.4370    -4.8910    -1.5000 hc         1 PCJ       0.070200
    138 H452         2.6910    -3.8580    -0.7480 hc         1 PCJ       0.070200
    139 H441         1.1990    -3.3550     1.1440 hc         1 PCJ       0.055200
    140 H442        -0.0410    -4.4410     0.5250 hc         1 PCJ       0.055200
    141 H431        -0.4690    -3.0000    -1.4040 hc         1 PCJ       0.036200
    142 H432         0.9530    -2.0140    -1.0580 hc         1 PCJ       0.036200
    143 H421        -0.0710    -1.2260     1.0690 hc         1 PCJ       0.040200
    144 H422        -1.5050    -2.2050     0.7700 hc         1 PCJ       0.040200
    145 H411        -2.1020    -0.8710    -1.1970 hc         1 PCJ       0.037700
    146 H412        -0.5580    -0.0180    -1.1590 hc         1 PCJ       0.037700
    147 H401        -1.1500     1.0230     1.0250 hc         1 PCJ       0.037700
    148 H402        -2.6900     0.1690     1.0390 hc         1 PCJ       0.037700
    149 H391        -3.4230     1.3900    -1.0010 hc         1 PCJ       0.037700
    150 H392        -1.8510     2.1790    -1.1240 hc         1 PCJ       0.037700
    151 H381        -2.2280     3.3180     1.0680 hc         1 PCJ       0.037200
    152 H382        -3.7910     2.5230     1.2280 hc         1 PCJ       0.037200
    153 H371        -4.6060     3.6900    -0.8360 hc         1 PCJ       0.038200
    154 H372        -3.0340     4.4640    -1.0260 hc         1 PCJ       0.038200
    155 H361        -3.3290     5.6310     1.1710 hc         1 PCJ       0.036200
    156 H362        -4.8930     4.8490     1.3860 hc         1 PCJ       0.036200
    157 H351        -5.7520     5.9930    -0.6780 hc         1 PCJ       0.038200
    158 H352        -4.1860     6.7720    -0.9000 hc         1 PCJ       0.038200
    159 H341        -4.4490     7.9460     1.3000 hc         1 PCJ       0.036700
    160 H342        -6.0070     7.1590     1.5400 hc         1 PCJ       0.036700
    161 H331        -6.8930     8.2910    -0.5240 hc         1 PCJ       0.037700
    162 H332        -5.3360     9.0840    -0.7550 hc         1 PCJ       0.037700
    163 H321        -5.6000    10.2600     1.4480 hc         1 PCJ       0.036700
    164 H322        -7.1480     9.4560     1.6960 hc         1 PCJ       0.036700
    165 H311        -7.5200    11.7580     0.8620 hc         1 PCJ       0.031367
    166 H312        -6.5060    11.4430    -0.5640 hc         1 PCJ       0.031367
    167 H313        -8.0600    10.6000    -0.3720 hc         1 PCJ       0.031367
@<TRIPOS>BOND
     1     1     2 1   
     2     1     6 1   
     3     1    99 1   
     4     1   100 1   
     5     2     7 1   
     6     3     4 1   
     7     3     6 1   
     8     3    96 1   
     9     3    97 1   
    10     4    98 1   
    11     5     6 1   
    12     5    61 1   
    13     5    94 1   
    14     6    95 1   
    15     7     8 1   
    16     7   101 1   
    17     7   102 1   
    18     8     9 1   
    19     8    10 1   
    20     8   103 1   
    21     9    44 1   
    22    10    11 1   
    23    10   104 1   
    24    10   105 1   
    25    11    27 1   
    26    12    13 1   
    27    12   134 1   
    28    12   135 1   
    29    12   136 1   
    30    13    14 1   
    31    13   132 1   
    32    13   133 1   
    33    14    15 1   
    34    14   130 1   
    35    14   131 1   
    36    15    16 1   
    37    15   128 1   
    38    15   129 1   
    39    16    17 1   
    40    16   126 1   
    41    16   127 1   
    42    17    18 1   
    43    17   124 1   
    44    17   125 1   
    45    18    19 1   
    46    18   122 1   
    47    18   123 1   
    48    19    20 1   
    49    19   120 1   
    50    19   121 1   
    51    20    21 1   
    52    20   118 1   
    53    20   119 1   
    54    21    22 1   
    55    21   116 1   
    56    21   117 1   
    57    22    23 1   
    58    22   114 1   
    59    22   115 1   
    60    23    24 1   
    61    23   112 1   
    62    23   113 1   
    63    24    25 1   
    64    24   110 1   
    65    24   111 1   
    66    25    26 1   
    67    25   108 1   
    68    25   109 1   
    69    26    27 1   
    70    26   106 1   
    71    26   107 1   
    72    27    28 2   
    73    29    30 1   
    74    29   165 1   
    75    29   166 1   
    76    29   167 1   
    77    30    31 1   
    78    30   163 1   
    79    30   164 1   
    80    31    32 1   
    81    31   161 1   
    82    31   162 1   
    83    32    33 1   
    84    32   159 1   
    85    32   160 1   
    86    33    34 1   
    87    33   157 1   
    88    33   158 1   
    89    34    35 1   
    90    34   155 1   
    91    34   156 1   
    92    35    36 1   
    93    35   153 1   
    94    35   154 1   
    95    36    37 1   
    96    36   151 1   
    97    36   152 1   
    98    37    38 1   
    99    37   149 1   
   100    37   150 1   
   101    38    39 1   
   102    38   147 1   
   103    38   148 1   
   104    39    40 1   
   105    39   145 1   
   106    39   146 1   
   107    40    41 1   
   108    40   143 1   
   109    40   144 1   
   110    41    42 1   
   111    41   141 1   
   112    41   142 1   
   113    42    43 1   
   114    42   139 1   
   115    42   140 1   
   116    43    44 1   
   117    43   137 1   
   118    43   138 1   
   119    44    45 2   
   120    46    47 1   
   121    46    63 1   
   122    46    64 1   
   123    46    65 1   
   124    47    48 1   
   125    47    66 1   
   126    47    67 1   
   127    48    49 1   
   128    48    68 1   
   129    48    69 1   
   130    49    50 1   
   131    49    70 1   
   132    49    71 1   
   133    50    51 1   
   134    50    72 1   
   135    50    73 1   
   136    51    52 1   
   137    51    74 1   
   138    51    75 1   
   139    52    53 1   
   140    52    76 1   
   141    52    77 1   
   142    53    54 1   
   143    53    78 1   
   144    53    79 1   
   145    54    55 1   
   146    54    80 1   
   147    54    81 1   
   148    55    56 1   
   149    55    82 1   
   150    55    83 1   
   151    56    57 1   
   152    56    84 1   
   153    56    85 1   
   154    57    58 1   
   155    57    86 1   
   156    57    87 1   
   157    58    59 1   
   158    58    88 1   
   159    58    89 1   
   160    59    60 1   
   161    59    90 1   
   162    59    91 1   
   163    60    61 1   
   164    60    92 1   
   165    60    93 1   
   166    61    62 2   
@<TRIPOS>SUBSTRUCTURE
     1 PCJ         1 TEMP              0 ****  ****    0 ROOT
