@<TRIPOS>MOLECULE
PCK
  142   141     1     0     0
SMALL
No Charge or Current Charge


@<TRIPOS>ATOM
      1 C48        -19.6560     7.2320     0.2240 c3         1 PCK      -0.088100
      2 C47        -18.9890     5.8780     0.5320 c3         1 PCK      -0.074400
      3 C46        -17.6570     5.6720    -0.2210 c3         1 PCK      -0.075400
      4 C45        -16.9870     4.3180     0.1000 c3         1 PCK      -0.074400
      5 C44        -15.6510     4.1110    -0.6480 c3         1 PCK      -0.073400
      6 C43        -14.9740     2.7640    -0.3130 c3         1 PCK      -0.074400
      7 C42        -13.6330     2.5580    -1.0530 c3         1 PCK      -0.075400
      8 C41        -12.9590     1.2050    -0.7170 c3         1 PCK      -0.076400
      9 C40        -11.5830     0.9930    -1.4040 c3         1 PCK       0.112300
     10 Br4        -11.7910     0.9230    -3.3970 br         1 PCK      -0.259000
     11 C39        -10.8100    -0.2480    -0.8710 c3         1 PCK       0.109300
     12 Br3        -11.7850    -1.9510    -1.2860 br         1 PCK      -0.256000
     13 C38         -9.3440    -0.3160    -1.3760 c3         1 PCK      -0.075400
     14 C37         -8.4870    -1.4090    -0.6930 c3         1 PCK      -0.076400
     15 C36         -7.0190    -1.4120    -1.1760 c3         1 PCK      -0.073400
     16 C35         -6.1670    -2.5080    -0.5020 c3         1 PCK      -0.075400
     17 C34         -4.7010    -2.5250    -0.9880 c3         1 PCK      -0.075400
     18 C33         -3.8500    -3.6040    -0.2830 c3         1 PCK      -0.069400
     19 C32         -2.3830    -3.6540    -0.7760 c3         1 PCK      -0.136400
     20 C31         -1.5770    -4.6700     0.0340 c          1 PCK       0.598100
     21 O31         -1.5890    -5.8710    -0.1960 o          1 PCK      -0.494000
     22 O2          -0.9990    -4.0920     1.1360 os         1 PCK      -0.431100
     23 C2          -0.3390    -4.9410     2.1120 c3         1 PCK       0.162300
     24 C1           0.9920    -5.5410     1.5550 c3         1 PCK       0.216600
     25 O3P          1.9900    -4.5240     1.3730 os         1 PCK      -0.590400
     26 P            3.3770    -4.9490     0.6800 p5         1 PCK       1.390800
     27 O1P          4.4360    -3.9210     0.8850 o          1 PCK      -0.817000
     28 O2P          3.8220    -6.2960     1.1420 o          1 PCK      -0.817000
     29 O4P          2.8920    -4.9920    -0.8580 os         1 PCK      -0.580400
     30 C4           2.7780    -3.7910    -1.6410 c3         1 PCK       0.216600
     31 C5           1.5090    -2.9970    -1.2380 c3         1 PCK       0.085600
     32 N            1.6570    -1.5050    -0.8760 n4         1 PCK      -0.486000
     33 C7           2.2840    -0.7170    -2.0430 c3         1 PCK       0.073233
     34 C8           0.2680    -0.9300    -0.5780 c3         1 PCK       0.073233
     35 C6           2.5320    -1.3530     0.3750 c3         1 PCK       0.073233
     36 C3          -0.2020    -4.1630     3.4500 c3         1 PCK       0.170600
     37 O3           0.5230    -2.9310     3.2540 os         1 PCK      -0.419100
     38 C11          0.8660    -2.2070     4.3630 c          1 PCK       0.606100
     39 O11          0.6630    -2.5650     5.5160 o          1 PCK      -0.502000
     40 C12          1.6970    -0.9780     3.9950 c3         1 PCK      -0.148400
     41 C13          3.1930    -1.3450     3.8300 c3         1 PCK      -0.067400
     42 C14          4.0600    -0.1590     3.3500 c3         1 PCK      -0.070400
     43 C15          5.5060    -0.5690     2.9940 c3         1 PCK      -0.078400
     44 C16          6.3370     0.5960     2.4110 c3         1 PCK      -0.071400
     45 C17          7.7710     0.1810     2.0140 c3         1 PCK      -0.076400
     46 C18          8.5860     1.3500     1.4040 c3         1 PCK      -0.080400
     47 C19         10.0100     0.9600     0.9110 c3         1 PCK       0.122300
     48 Br1         11.0820     0.2890     2.4720 br         1 PCK      -0.282000
     49 C20         10.7640     2.1090     0.1640 c3         1 PCK       0.127300
     50 Br2          9.6950     2.7750    -1.4030 br         1 PCK      -0.289000
     51 C21         12.1920     1.7270    -0.3210 c3         1 PCK      -0.082400
     52 C22         13.0040     2.9010    -0.9230 c3         1 PCK      -0.074400
     53 C23         14.4490     2.4950    -1.2860 c3         1 PCK      -0.074400
     54 C24         15.2840     3.6550    -1.8690 c3         1 PCK      -0.074400
     55 C25         16.7300     3.2340    -2.2110 c3         1 PCK      -0.074400
     56 C26         17.5790     4.3860    -2.7880 c3         1 PCK      -0.075400
     57 C27         19.0260     3.9590    -3.1210 c3         1 PCK      -0.074400
     58 C28         19.8790     5.1050    -3.6970 c3         1 PCK      -0.088100
     59 H481       -19.0010     8.0630     0.5130 hc         1 PCK       0.031367
     60 H482       -19.8780     7.3210    -0.8470 hc         1 PCK       0.031367
     61 H483       -20.5980     7.3290     0.7790 hc         1 PCK       0.031367
     62 H471       -19.6840     5.0700     0.2680 hc         1 PCK       0.036700
     63 H472       -18.8120     5.8070     1.6120 hc         1 PCK       0.036700
     64 H461       -16.9680     6.4860     0.0370 hc         1 PCK       0.037200
     65 H462       -17.8390     5.7360    -1.3020 hc         1 PCK       0.037200
     66 H451       -17.6750     3.5040    -0.1600 hc         1 PCK       0.037200
     67 H452       -16.8080     4.2550     1.1810 hc         1 PCK       0.037200
     68 H441       -14.9680     4.9320    -0.3950 hc         1 PCK       0.038700
     69 H442       -15.8320     4.1660    -1.7290 hc         1 PCK       0.038700
     70 H431       -15.6570     1.9450    -0.5720 hc         1 PCK       0.039200
     71 H432       -14.8010     2.7080     0.7690 hc         1 PCK       0.039200
     72 H421       -12.9500     3.3760    -0.7930 hc         1 PCK       0.047200
     73 H422       -13.8140     2.6250    -2.1330 hc         1 PCK       0.047200
     74 H411       -13.6360     0.3880    -0.9940 hc         1 PCK       0.058200
     75 H412       -12.8220     1.1470     0.3700 hc         1 PCK       0.058200
     76 H40        -10.9670     1.8820    -1.2130 h1         1 PCK       0.077700
     77 H39        -10.7910    -0.1940     0.2260 h1         1 PCK       0.079700
     78 H381        -8.8680     0.6570    -1.2030 hc         1 PCK       0.056700
     79 H382        -9.3370    -0.4820    -2.4600 hc         1 PCK       0.056700
     80 H371        -8.9220    -2.3970    -0.8870 hc         1 PCK       0.048700
     81 H372        -8.5070    -1.2570     0.3930 hc         1 PCK       0.048700
     82 H361        -6.5690    -0.4320    -0.9740 hc         1 PCK       0.036700
     83 H362        -6.9980    -1.5570    -2.2640 hc         1 PCK       0.036700
     84 H351        -6.6220    -3.4880    -0.6970 hc         1 PCK       0.042700
     85 H352        -6.1860    -2.3590     0.5850 hc         1 PCK       0.042700
     86 H341        -4.2510    -1.5400    -0.8110 hc         1 PCK       0.034200
     87 H342        -4.6810    -2.6990    -2.0710 hc         1 PCK       0.034200
     88 H331        -4.3130    -4.5880    -0.4350 hc         1 PCK       0.055700
     89 H332        -3.8590    -3.4150     0.7980 hc         1 PCK       0.055700
     90 H321        -1.9520    -2.6580    -0.6370 hc         1 PCK       0.066700
     91 H322        -2.3700    -3.9380    -1.8350 hc         1 PCK       0.066700
     92 H2          -0.9900    -5.7960     2.3370 h1         1 PCK       0.065700
     93 H11          1.3480    -6.2960     2.2710 h1         1 PCK       0.046700
     94 H12          0.7970    -6.0640     0.6090 h1         1 PCK       0.046700
     95 H41          3.6640    -3.1590    -1.5090 h1         1 PCK       0.056200
     96 H42          2.7160    -4.0390    -2.7070 h1         1 PCK       0.056200
     97 H51          0.8020    -3.0610    -2.0690 hx         1 PCK       0.079200
     98 H52          1.0430    -3.4870    -0.3830 hx         1 PCK       0.079200
     99 H71          1.6680    -0.8450    -2.9390 hx         1 PCK       0.095589
    100 H72          2.3320     0.3430    -1.7800 hx         1 PCK       0.095589
    101 H73          3.2950    -1.0870    -2.2310 hx         1 PCK       0.095589
    102 H81         -0.1790    -1.4860     0.2500 hx         1 PCK       0.095589
    103 H82          0.3580     0.1250    -0.3110 hx         1 PCK       0.095589
    104 H83         -0.3550    -1.0290    -1.4710 hx         1 PCK       0.095589
    105 H61          3.5420    -1.7120     0.1600 hx         1 PCK       0.095589
    106 H62          2.5730    -0.3000     0.6640 hx         1 PCK       0.095589
    107 H63          2.0970    -1.9430     1.1870 hx         1 PCK       0.095589
    108 H31          0.3180    -4.8080     4.1710 h1         1 PCK       0.055200
    109 H32         -1.2040    -3.9560     3.8460 h1         1 PCK       0.055200
    110 H121         1.5910    -0.2170     4.7760 hc         1 PCK       0.075200
    111 H122         1.3460    -0.5980     3.0290 hc         1 PCK       0.075200
    112 H131         3.2810    -2.1700     3.1120 hc         1 PCK       0.059200
    113 H132         3.5840    -1.7180     4.7850 hc         1 PCK       0.059200
    114 H141         4.0820     0.6110     4.1310 hc         1 PCK       0.023200
    115 H142         3.5950     0.2990     2.4690 hc         1 PCK       0.023200
    116 H151         5.4780    -1.3870     2.2630 hc         1 PCK       0.047700
    117 H152         6.0020    -0.9590     3.8910 hc         1 PCK       0.047700
    118 H161         6.3860     1.4070     3.1480 hc         1 PCK       0.031700
    119 H162         5.8220     0.9950     1.5280 hc         1 PCK       0.031700
    120 H171         7.7200    -0.6390     1.2860 hc         1 PCK       0.052200
    121 H172         8.2810    -0.2100     2.9030 hc         1 PCK       0.052200
    122 H181         8.6720     2.1560     2.1420 hc         1 PCK       0.057200
    123 H182         8.0030     1.7540     0.5690 hc         1 PCK       0.057200
    124 H19          9.9320     0.1010     0.2310 h1         1 PCK       0.093700
    125 H20         10.8370     2.9690     0.8420 h1         1 PCK       0.089700
    126 H211        12.1160     0.9200    -1.0600 hc         1 PCK       0.061700
    127 H212        12.7720     1.3270     0.5180 hc         1 PCK       0.061700
    128 H221        13.0320     3.7280    -0.2020 hc         1 PCK       0.047200
    129 H222        12.5080     3.2790    -1.8250 hc         1 PCK       0.047200
    130 H231        14.4190     1.6740    -2.0120 hc         1 PCK       0.040200
    131 H232        14.9500     2.1110    -0.3880 hc         1 PCK       0.040200
    132 H241        15.3100     4.4810    -1.1470 hc         1 PCK       0.038200
    133 H242        14.7940     4.0350    -2.7750 hc         1 PCK       0.038200
    134 H251        16.7030     2.4090    -2.9350 hc         1 PCK       0.037700
    135 H252        17.2150     2.8480    -1.3050 hc         1 PCK       0.037700
    136 H261        17.6040     5.2120    -2.0650 hc         1 PCK       0.037200
    137 H262        17.0980     4.7700    -3.6960 hc         1 PCK       0.037200
    138 H271        19.0040     3.1330    -3.8430 hc         1 PCK       0.036700
    139 H272        19.5090     3.5770    -2.2130 hc         1 PCK       0.036700
    140 H281        20.8940     4.7520    -3.9160 hc         1 PCK       0.031700
    141 H282        19.4400     5.4860    -4.6270 hc         1 PCK       0.031700
    142 H283        19.9520     5.9340    -2.9820 hc         1 PCK       0.031700
@<TRIPOS>BOND
     1     1     2 1   
     2     1    59 1   
     3     1    60 1   
     4     1    61 1   
     5     2     3 1   
     6     2    62 1   
     7     2    63 1   
     8     3     4 1   
     9     3    64 1   
    10     3    65 1   
    11     4     5 1   
    12     4    66 1   
    13     4    67 1   
    14     5     6 1   
    15     5    68 1   
    16     5    69 1   
    17     6     7 1   
    18     6    70 1   
    19     6    71 1   
    20     7     8 1   
    21     7    72 1   
    22     7    73 1   
    23     8     9 1   
    24     8    74 1   
    25     8    75 1   
    26     9    10 1   
    27     9    11 1   
    28     9    76 1   
    29    11    12 1   
    30    11    13 1   
    31    11    77 1   
    32    13    14 1   
    33    13    78 1   
    34    13    79 1   
    35    14    15 1   
    36    14    80 1   
    37    14    81 1   
    38    15    16 1   
    39    15    82 1   
    40    15    83 1   
    41    16    17 1   
    42    16    84 1   
    43    16    85 1   
    44    17    18 1   
    45    17    86 1   
    46    17    87 1   
    47    18    19 1   
    48    18    88 1   
    49    18    89 1   
    50    19    20 1   
    51    19    90 1   
    52    19    91 1   
    53    20    21 2   
    54    20    22 1   
    55    22    23 1   
    56    23    24 1   
    57    23    36 1   
    58    23    92 1   
    59    24    25 1   
    60    24    93 1   
    61    24    94 1   
    62    25    26 1   
    63    26    27 1   
    64    26    28 1   
    65    26    29 1   
    66    29    30 1   
    67    30    31 1   
    68    30    95 1   
    69    30    96 1   
    70    31    32 1   
    71    31    97 1   
    72    31    98 1   
    73    32    33 1   
    74    32    34 1   
    75    32    35 1   
    76    33    99 1   
    77    33   100 1   
    78    33   101 1   
    79    34   102 1   
    80    34   103 1   
    81    34   104 1   
    82    35   105 1   
    83    35   106 1   
    84    35   107 1   
    85    36    37 1   
    86    36   108 1   
    87    36   109 1   
    88    37    38 1   
    89    38    39 2   
    90    38    40 1   
    91    40    41 1   
    92    40   110 1   
    93    40   111 1   
    94    41    42 1   
    95    41   112 1   
    96    41   113 1   
    97    42    43 1   
    98    42   114 1   
    99    42   115 1   
   100    43    44 1   
   101    43   116 1   
   102    43   117 1   
   103    44    45 1   
   104    44   118 1   
   105    44   119 1   
   106    45    46 1   
   107    45   120 1   
   108    45   121 1   
   109    46    47 1   
   110    46   122 1   
   111    46   123 1   
   112    47    48 1   
   113    47    49 1   
   114    47   124 1   
   115    49    50 1   
   116    49    51 1   
   117    49   125 1   
   118    51    52 1   
   119    51   126 1   
   120    51   127 1   
   121    52    53 1   
   122    52   128 1   
   123    52   129 1   
   124    53    54 1   
   125    53   130 1   
   126    53   131 1   
   127    54    55 1   
   128    54   132 1   
   129    54   133 1   
   130    55    56 1   
   131    55   134 1   
   132    55   135 1   
   133    56    57 1   
   134    56   136 1   
   135    56   137 1   
   136    57    58 1   
   137    57   138 1   
   138    57   139 1   
   139    58   140 1   
   140    58   141 1   
   141    58   142 1   
@<TRIPOS>SUBSTRUCTURE
     1 PCK         1 TEMP              0 ****  ****    0 ROOT
