@<TRIPOS>MOLECULE
PCK
  142   141     1     0     0
SMALL
bcc


@<TRIPOS>ATOM
      1 C48        -20.5560     7.3630    -0.2040 c3         1 PCK      -0.088100
      2 C47        -19.8770     6.0140    -0.0100 c3         1 PCK      -0.074400
      3 C46        -18.3850     6.0500    -0.3150 c3         1 PCK      -0.075400
      4 C45        -17.7030     4.6990    -0.1420 c3         1 PCK      -0.074400
      5 C44        -16.2120     4.7290    -0.4490 c3         1 PCK      -0.073400
      6 C43        -15.5520     3.3610    -0.3280 c3         1 PCK      -0.074400
      7 C42        -14.0590     3.3840    -0.6320 c3         1 PCK      -0.075400
      8 C41        -13.4600     1.9830    -0.6180 c3         1 PCK      -0.076400
      9 C40        -11.9470     1.9270    -0.7230 c3         1 PCK       0.029700
     10 BR4        -11.3320     2.6720    -2.4480 br         1 PCK      -0.176400
     11 C39        -11.3390     0.5560    -0.4760 c3         1 PCK       0.026700
     12 BR3        -11.9660    -0.7490    -1.8240 br         1 PCK      -0.173400
     13 C38         -9.8240     0.5300    -0.3730 c3         1 PCK      -0.075400
     14 C37         -9.2450    -0.7800     0.1450 c3         1 PCK      -0.076400
     15 C36         -7.7460    -0.6860     0.4000 c3         1 PCK      -0.073400
     16 C35         -7.1480    -2.0040     0.8780 c3         1 PCK      -0.075400
     17 C34         -5.6510    -1.9200     1.1480 c3         1 PCK      -0.075400
     18 C33         -5.0610    -3.2470     1.6100 c3         1 PCK      -0.069400
     19 C32         -3.5700    -3.1380     1.8810 c3         1 PCK      -0.136400
     20 C31         -2.9380    -4.4280     2.3290 c          1 PCK       0.647100
     21 O31         -3.5200    -5.4740     2.4750 o          1 PCK      -0.543000
     22 O2          -1.6350    -4.2730     2.5480 os         1 PCK      -0.407900
     23 C2          -0.8560    -5.3990     2.9620 c3         1 PCK       0.139100
     24 C1          -0.4850    -6.2810     1.7800 c3         1 PCK       0.193400
     25 O3P          0.0600    -5.5100     0.7340 os         1 PCK      -0.567200
     26 P            1.2330    -6.1320    -0.2120 p5         1 PCK       1.390800
     27 O1P          2.5870    -5.6370     0.2060 o          1 PCK      -0.817000
     28 O2P          1.0140    -7.5990    -0.4160 o          1 PCK      -0.817000
     29 O4P          0.7500    -5.2850    -1.5440 os         1 PCK      -0.557200
     30 C4           1.6260    -5.1840    -2.6410 c3         1 PCK       0.193400
     31 C5           1.7140    -3.7730    -3.1790 c3         1 PCK       0.113800
     32 N            2.4100    -2.7400    -2.3290 n4         1 PCK      -0.598800
     33 C7           3.7660    -3.2010    -1.9220 c3         1 PCK       0.101433
     34 C8           2.5490    -1.5110    -3.1640 c3         1 PCK       0.101433
     35 C6           1.6190    -2.3930    -1.1120 c3         1 PCK       0.101433
     36 C3           0.3160    -4.8690     3.7560 c3         1 PCK       0.147400
     37 O3           1.1130    -4.0260     2.9330 os         1 PCK      -0.395900
     38 C11          2.3240    -3.6980     3.3620 c          1 PCK       0.655100
     39 O11          2.7570    -4.0280     4.4390 o          1 PCK      -0.551000
     40 C12          3.0720    -2.9050     2.3290 c3         1 PCK      -0.148400
     41 C13          4.4250    -2.3980     2.7960 c3         1 PCK      -0.067400
     42 C14          5.1700    -1.6690     1.6850 c3         1 PCK      -0.070400
     43 C15          6.5290    -1.1470     2.1310 c3         1 PCK      -0.078400
     44 C16          7.2940    -0.4280     1.0280 c3         1 PCK      -0.071400
     45 C17          8.6370     0.1110     1.5060 c3         1 PCK      -0.076400
     46 C18          9.3930     0.8300     0.3950 c3         1 PCK      -0.080400
     47 C19         10.8030     1.2720     0.7610 c3         1 PCK       0.039700
     48 BR1         10.6480     2.6210     2.2270 br         1 PCK      -0.199400
     49 C20         11.6120     1.9270    -0.3600 c3         1 PCK       0.044700
     50 BR2         11.7600     0.5840    -1.8330 br         1 PCK      -0.206400
     51 C21         13.0240     2.3570     0.0100 c3         1 PCK      -0.082400
     52 C22         13.7920     3.0770    -1.0930 c3         1 PCK      -0.074400
     53 C23         15.1350     3.5990    -0.5980 c3         1 PCK      -0.074400
     54 C24         15.9270     4.3170    -1.6840 c3         1 PCK      -0.074400
     55 C25         17.2880     4.8120    -1.2110 c3         1 PCK      -0.074400
     56 C26         18.0780     5.5270    -2.3010 c3         1 PCK      -0.075400
     57 C27         19.4490     6.0030    -1.8400 c3         1 PCK      -0.074400
     58 C28         20.2240     6.7250    -2.9340 c3         1 PCK      -0.088100
     59 H481       -20.1140     8.1240     0.4430 hc         1 PCK       0.031367
     60 H482       -20.4550     7.7110    -1.2340 hc         1 PCK       0.031367
     61 H483       -21.6210     7.3140     0.0250 hc         1 PCK       0.031367
     62 H471       -20.3570     5.2660    -0.6490 hc         1 PCK       0.036700
     63 H472       -20.0270     5.6730     1.0190 hc         1 PCK       0.036700
     64 H461       -17.9000     6.7910     0.3320 hc         1 PCK       0.037200
     65 H462       -18.2340     6.4030    -1.3410 hc         1 PCK       0.037200
     66 H451       -18.1910     3.9630    -0.7900 hc         1 PCK       0.037200
     67 H452       -17.8550     4.3440     0.8840 hc         1 PCK       0.037200
     68 H441       -15.7150     5.4380     0.2220 hc         1 PCK       0.038700
     69 H442       -16.0580     5.1130    -1.4630 hc         1 PCK       0.038700
     70 H431       -16.0490     2.6610    -1.0090 hc         1 PCK       0.039200
     71 H432       -15.7130     2.9660     0.6810 hc         1 PCK       0.039200
     72 H421       -13.5460     4.0170     0.1000 hc         1 PCK       0.047200
     73 H422       -13.9000     3.8480    -1.6090 hc         1 PCK       0.047200
     74 H411       -13.9250     1.3750    -1.3980 hc         1 PCK       0.058200
     75 H412       -13.7100     1.5060     0.3370 hc         1 PCK       0.058200
     76 H40        -11.5110     2.5890     0.0320 h1         1 PCK       0.077700
     77 H39        -11.7670     0.2030     0.4680 h1         1 PCK       0.079700
     78 H381        -9.5580     1.3330     0.3250 hc         1 PCK       0.056700
     79 H382        -9.3650     0.7900    -1.3300 hc         1 PCK       0.056700
     80 H371        -9.4340    -1.5830    -0.5730 hc         1 PCK       0.048700
     81 H372        -9.7560    -1.0650     1.0710 hc         1 PCK       0.048700
     82 H361        -7.5490     0.0940     1.1430 hc         1 PCK       0.036700
     83 H362        -7.2380    -0.3700    -0.5170 hc         1 PCK       0.036700
     84 H351        -7.3380    -2.7800     0.1280 hc         1 PCK       0.042700
     85 H352        -7.6640    -2.3270     1.7880 hc         1 PCK       0.042700
     86 H341        -5.4620    -1.1520     1.9050 hc         1 PCK       0.034200
     87 H342        -5.1340    -1.5890     0.2410 hc         1 PCK       0.034200
     88 H331        -5.2450    -4.0090     0.8480 hc         1 PCK       0.055700
     89 H332        -5.5800    -3.5780     2.5130 hc         1 PCK       0.055700
     90 H321        -3.3720    -2.3790     2.6450 hc         1 PCK       0.066700
     91 H322        -3.0400    -2.7970     0.9860 hc         1 PCK       0.066700
     92 H2          -1.4270    -6.0230     3.6570 h1         1 PCK       0.065700
     93 H11          0.2020    -7.0480     2.1520 h1         1 PCK       0.046700
     94 H12         -1.3770    -6.8060     1.4280 h1         1 PCK       0.046700
     95 H41          2.6240    -5.5750    -2.4240 h1         1 PCK       0.056200
     96 H42          1.2430    -5.7780    -3.4760 h1         1 PCK       0.056200
     97 H51          2.2680    -3.8150    -4.1170 hx         1 PCK       0.079200
     98 H52          0.7210    -3.3770    -3.3940 hx         1 PCK       0.079200
     99 H71          4.3210    -3.5110    -2.8040 hx         1 PCK       0.095589
    100 H72          4.2830    -2.3740    -1.4420 hx         1 PCK       0.095589
    101 H73          3.6760    -4.0280    -1.2230 hx         1 PCK       0.095589
    102 H81          1.5630    -1.1800    -3.4790 hx         1 PCK       0.095589
    103 H82          3.0260    -0.7330    -2.5750 hx         1 PCK       0.095589
    104 H83          3.1550    -1.7370    -4.0360 hx         1 PCK       0.095589
    105 H61          1.6300    -3.2220    -0.4160 hx         1 PCK       0.095589
    106 H62          2.0740    -1.5220    -0.6480 hx         1 PCK       0.095589
    107 H63          0.6000    -2.1580    -1.4030 hx         1 PCK       0.095589
    108 H31          0.8920    -5.7210     4.1220 h1         1 PCK       0.055200
    109 H32         -0.0440    -4.3140     4.6270 h1         1 PCK       0.055200
    110 H121         2.4410    -2.0740     1.9990 hc         1 PCK       0.075200
    111 H122         3.1790    -3.5620     1.4610 hc         1 PCK       0.075200
    112 H131         5.0340    -3.2350     3.1490 hc         1 PCK       0.059200
    113 H132         4.2990    -1.7260     3.6500 hc         1 PCK       0.059200
    114 H141         4.5620    -0.8330     1.3190 hc         1 PCK       0.023200
    115 H142         5.3010    -2.3460     0.8330 hc         1 PCK       0.023200
    116 H151         7.1310    -1.9820     2.5060 hc         1 PCK       0.047700
    117 H152         6.3930    -0.4670     2.9790 hc         1 PCK       0.047700
    118 H161         6.6880     0.4000     0.6440 hc         1 PCK       0.031700
    119 H162         7.4470    -1.1110     0.1860 hc         1 PCK       0.031700
    120 H171         9.2480    -0.7170     1.8800 hc         1 PCK       0.052200
    121 H172         8.4670     0.7770     2.3550 hc         1 PCK       0.052200
    122 H181         8.8210     1.6890     0.0300 hc         1 PCK       0.057200
    123 H182         9.4720     0.1360    -0.4440 hc         1 PCK       0.057200
    124 H19         11.3710     0.4490     1.2020 h1         1 PCK       0.093700
    125 H20         11.0480     2.7540    -0.7970 h1         1 PCK       0.089700
    126 H211        13.5880     1.4930     0.3730 hc         1 PCK       0.061700
    127 H212        12.9470     3.0480     0.8520 hc         1 PCK       0.061700
    128 H221        13.1900     3.9130    -1.4660 hc         1 PCK       0.047200
    129 H222        13.9620     2.4150    -1.9450 hc         1 PCK       0.047200
    130 H231        15.7270     2.7630    -0.2110 hc         1 PCK       0.040200
    131 H232        14.9790     4.2780     0.2470 hc         1 PCK       0.040200
    132 H241        15.3420     5.1650    -2.0600 hc         1 PCK       0.038200
    133 H242        16.0630     3.6420    -2.5360 hc         1 PCK       0.038200
    134 H251        17.8710     3.9640    -0.8370 hc         1 PCK       0.037700
    135 H252        17.1540     5.4880    -0.3590 hc         1 PCK       0.037700
    136 H261        17.5000     6.3840    -2.6660 hc         1 PCK       0.037200
    137 H262        18.1970     4.8560    -3.1590 hc         1 PCK       0.037200
    138 H271        20.0280     5.1460    -1.4820 hc         1 PCK       0.036700
    139 H272        19.3310     6.6680    -0.9780 hc         1 PCK       0.036700
    140 H281        21.2090     7.0400    -2.5880 hc         1 PCK       0.031700
    141 H282        20.3690     6.0840    -3.8050 hc         1 PCK       0.031700
    142 H283        19.6910     7.6170    -3.2680 hc         1 PCK       0.031700
@<TRIPOS>BOND
     1     1     2 1   
     2     1    59 1   
     3     1    60 1   
     4     1    61 1   
     5     2     3 1   
     6     2    62 1   
     7     2    63 1   
     8     3     4 1   
     9     3    64 1   
    10     3    65 1   
    11     4     5 1   
    12     4    66 1   
    13     4    67 1   
    14     5     6 1   
    15     5    68 1   
    16     5    69 1   
    17     6     7 1   
    18     6    70 1   
    19     6    71 1   
    20     7     8 1   
    21     7    72 1   
    22     7    73 1   
    23     8     9 1   
    24     8    74 1   
    25     8    75 1   
    26     9    10 1   
    27     9    11 1   
    28     9    76 1   
    29    11    12 1   
    30    11    13 1   
    31    11    77 1   
    32    13    14 1   
    33    13    78 1   
    34    13    79 1   
    35    14    15 1   
    36    14    80 1   
    37    14    81 1   
    38    15    16 1   
    39    15    82 1   
    40    15    83 1   
    41    16    17 1   
    42    16    84 1   
    43    16    85 1   
    44    17    18 1   
    45    17    86 1   
    46    17    87 1   
    47    18    19 1   
    48    18    88 1   
    49    18    89 1   
    50    19    20 1   
    51    19    90 1   
    52    19    91 1   
    53    20    21 2   
    54    20    22 1   
    55    22    23 1   
    56    23    24 1   
    57    23    36 1   
    58    23    92 1   
    59    24    25 1   
    60    24    93 1   
    61    24    94 1   
    62    25    26 1   
    63    26    27 1   
    64    26    28 1   
    65    26    29 1   
    66    29    30 1   
    67    30    31 1   
    68    30    95 1   
    69    30    96 1   
    70    31    32 1   
    71    31    97 1   
    72    31    98 1   
    73    32    33 1   
    74    32    34 1   
    75    32    35 1   
    76    33    99 1   
    77    33   100 1   
    78    33   101 1   
    79    34   102 1   
    80    34   103 1   
    81    34   104 1   
    82    35   105 1   
    83    35   106 1   
    84    35   107 1   
    85    36    37 1   
    86    36   108 1   
    87    36   109 1   
    88    37    38 1   
    89    38    39 2   
    90    38    40 1   
    91    40    41 1   
    92    40   110 1   
    93    40   111 1   
    94    41    42 1   
    95    41   112 1   
    96    41   113 1   
    97    42    43 1   
    98    42   114 1   
    99    42   115 1   
   100    43    44 1   
   101    43   116 1   
   102    43   117 1   
   103    44    45 1   
   104    44   118 1   
   105    44   119 1   
   106    45    46 1   
   107    45   120 1   
   108    45   121 1   
   109    46    47 1   
   110    46   122 1   
   111    46   123 1   
   112    47    48 1   
   113    47    49 1   
   114    47   124 1   
   115    49    50 1   
   116    49    51 1   
   117    49   125 1   
   118    51    52 1   
   119    51   126 1   
   120    51   127 1   
   121    52    53 1   
   122    52   128 1   
   123    52   129 1   
   124    53    54 1   
   125    53   130 1   
   126    53   131 1   
   127    54    55 1   
   128    54   132 1   
   129    54   133 1   
   130    55    56 1   
   131    55   134 1   
   132    55   135 1   
   133    56    57 1   
   134    56   136 1   
   135    56   137 1   
   136    57    58 1   
   137    57   138 1   
   138    57   139 1   
   139    58   140 1   
   140    58   141 1   
   141    58   142 1   
@<TRIPOS>SUBSTRUCTURE
     1 PCK         1 TEMP              0 ****  ****    0 ROOT
