@<TRIPOS>MOLECULE
PCM
   85    87     1     0     0
SMALL
abcg2


@<TRIPOS>ATOM
      1 C1          -1.8160     0.5870    11.2430 ca         1 PCM      -0.099000
      2 C2          -0.6180     1.2170    10.9290 ca         1 PCM      -0.116500
      3 C3          -0.3230     1.5260     9.6090 ca         1 PCM      -0.084000
      4 C4          -1.2180     1.2080     8.5910 ca         1 PCM      -0.101300
      5 C5          -2.4140     0.5760     8.9140 ca         1 PCM      -0.084000
      6 C6          -2.7140     0.2670    10.2340 ca         1 PCM      -0.116500
      7 C7          -0.8800     1.5230     7.1650 c3         1 PCM       0.230900
      8 O8          -0.0120     0.4810     6.7020 os         1 PCM      -0.453100
      9 C9           0.4440     0.5870     5.4520 c          1 PCM       0.638100
     10 O10          0.1550     1.4850     4.6890 o          1 PCM      -0.538000
     11 C11          1.8090    -0.5650     3.8220 c3         1 PCM       0.057700
     12 C12          2.8710    -1.6670     3.7910 c3         1 PCM      -0.085400
     13 C13          4.0580    -1.4400     4.7320 c3         1 PCM      -0.059700
     14 C14          5.0110    -2.6280     4.6430 c3         1 PCM      -0.090600
     15 C15          4.7920    -0.1380     4.4340 c3         1 PCM      -0.090600
     16 C16          0.6970    -0.9140     2.8310 c          1 PCM       0.591100
     17 O17         -0.2410    -1.6260     3.1400 o          1 PCM      -0.583100
     18 N18          0.8910    -0.4300     1.5890 ns         1 PCM      -0.483900
     19 C19         -0.0250    -0.6470     0.5160 c5         1 PCM      -0.016300
     20 N20          1.2810    -0.4250     5.1500 ns         1 PCM      -0.484900
     21 C21          0.6280    -0.7340    -0.8590 c5         1 PCM       0.095000
     22 C22         -1.0490     0.4650     0.3490 c          1 PCM       0.538100
     23 O23         -1.4880     1.1560     1.2250 o          1 PCM      -0.457100
     24 C24          2.0730     0.2460   -11.3660 ca         1 PCM      -0.098000
     25 C25          0.9930     1.1020   -11.1880 ca         1 PCM      -0.116500
     26 C26          0.6880     1.5810    -9.9210 ca         1 PCM      -0.083500
     27 C27          1.4570     1.2110    -8.8220 ca         1 PCM      -0.102300
     28 C28          2.5380     0.3550    -9.0090 ca         1 PCM      -0.083500
     29 C29          2.8470    -0.1250   -10.2740 ca         1 PCM      -0.116500
     30 C30          1.1020     1.6950    -7.4490 c3         1 PCM       0.231900
     31 O31          0.1410     0.7700    -6.9230 os         1 PCM      -0.452100
     32 C32         -0.2450     0.9450    -5.6580 c          1 PCM       0.639100
     33 O33          0.1620     1.8270    -4.9300 o          1 PCM      -0.547000
     34 C34         -1.5600    -0.1010    -3.9240 c3         1 PCM       0.049700
     35 C35         -2.7230    -1.0920    -3.8140 c3         1 PCM      -0.083400
     36 C36         -4.0260    -0.6080    -4.4530 c3         1 PCM      -0.060700
     37 C37         -5.0530    -1.7360    -4.4510 c3         1 PCM      -0.090600
     38 C38         -4.5860     0.6240    -3.7480 c3         1 PCM      -0.090600
     39 O40          0.5380    -1.2180    -3.5700 o          1 PCM      -0.590100
     40 N41         -0.4370    -0.3120    -1.7590 n          1 PCM      -0.412800
     41 C42         -1.3940     0.5690    -1.1180 c5         1 PCM      -0.015000
     42 N43         -1.1700     0.0300    -5.3020 ns         1 PCM      -0.472900
     43 H1          -2.0510     0.3500    12.2730 ha         1 PCM       0.112000
     44 H2           0.0830     1.4720    11.7130 ha         1 PCM       0.113500
     45 H3           0.6080     2.0250     9.3670 ha         1 PCM       0.115500
     46 H5          -3.1190     0.3260     8.1290 ha         1 PCM       0.115500
     47 H6          -3.6490    -0.2220    10.4750 ha         1 PCM       0.113500
     48 H71         -0.3760     2.4890     7.0920 h1         1 PCM       0.058200
     49 H72         -1.7820     1.5620     6.5510 h1         1 PCM       0.058200
     50 H11          2.2680     0.3800     3.5200 h1         1 PCM       0.076700
     51 H121         3.2400    -1.7550     2.7650 hc         1 PCM       0.057200
     52 H122         2.3960    -2.6240     4.0340 hc         1 PCM       0.057200
     53 H13          3.6830    -1.3920     5.7600 hc         1 PCM       0.051700
     54 H141         5.8380    -2.5180     5.3450 hc         1 PCM       0.036033
     55 H142         4.5030    -3.5660     4.8720 hc         1 PCM       0.036033
     56 H143         5.4360    -2.7150     3.6410 hc         1 PCM       0.036033
     57 H151         5.1710    -0.1290     3.4090 hc         1 PCM       0.036033
     58 H152         4.1540     0.7390     4.5610 hc         1 PCM       0.036033
     59 H153         5.6440    -0.0140     5.1040 hc         1 PCM       0.036033
     60 HN8          1.6220     0.2490     1.4430 hn         1 PCM       0.320500
     61 H19         -0.5900    -1.5660     0.7050 h1         1 PCM       0.111700
     62 HN2          1.3690    -1.1960     5.7930 hn         1 PCM       0.336500
     63 H211         1.4900    -0.0610    -0.9260 h1         1 PCM       0.067700
     64 H212         0.9620    -1.7410    -1.0950 h1         1 PCM       0.067700
     65 H25          0.3890     1.3970   -12.0360 ha         1 PCM       0.114500
     66 H26         -0.1520     2.2520    -9.7880 ha         1 PCM       0.115500
     67 H28          3.1470     0.0640    -8.1610 ha         1 PCM       0.115500
     68 H29          3.6920    -0.7870   -10.4080 ha         1 PCM       0.114500
     69 H301         0.6710     2.6970    -7.4850 h1         1 PCM       0.056700
     70 H302         1.9860     1.7250    -6.8080 h1         1 PCM       0.056700
     71 H34         -1.8840     0.8800    -3.5690 h1         1 PCM       0.087700
     72 H351        -2.4120    -2.0370    -4.2720 hc         1 PCM       0.054700
     73 H352        -2.9080    -1.3210    -2.7600 hc         1 PCM       0.054700
     74 H36         -3.8220    -0.3430    -5.4960 hc         1 PCM       0.056700
     75 H371        -5.9790    -1.4210    -4.9340 hc         1 PCM       0.035700
     76 H372        -4.6840    -2.6150    -4.9820 hc         1 PCM       0.035700
     77 H373        -5.2990    -2.0410    -3.4310 hc         1 PCM       0.035700
     78 H381        -4.8100     0.4060    -2.7000 hc         1 PCM       0.035700
     79 H382        -3.9000     1.4710    -3.7710 hc         1 PCM       0.035700
     80 H383        -5.5130     0.9490    -4.2210 hc         1 PCM       0.035700
     81 H421        -1.3050     1.6100    -1.4440 h1         1 PCM       0.080200
     82 H422        -2.4320     0.2560    -1.2680 h1         1 PCM       0.080200
     83 HN4         -1.3090    -0.7640    -5.9090 hn         1 PCM       0.331500
     84 C39         -0.3810    -0.5860    -3.0770 c          1 PCM       0.591100
     85 H24          2.3120    -0.1270   -12.3530 ha         1 PCM       0.113000
@<TRIPOS>BOND
     1     1     2 ar  
     2     1     6 ar  
     3     1    43 1   
     4     2     3 ar  
     5     2    44 1   
     6     3     4 ar  
     7     3    45 1   
     8     4     5 ar  
     9     4     7 1   
    10     5     6 ar  
    11     5    46 1   
    12     6    47 1   
    13     7     8 1   
    14     7    48 1   
    15     7    49 1   
    16     8     9 1   
    17     9    10 2   
    18     9    20 1   
    19    11    12 1   
    20    11    16 1   
    21    11    20 1   
    22    11    50 1   
    23    12    13 1   
    24    12    51 1   
    25    12    52 1   
    26    13    14 1   
    27    13    15 1   
    28    13    53 1   
    29    14    54 1   
    30    14    55 1   
    31    14    56 1   
    32    15    57 1   
    33    15    58 1   
    34    15    59 1   
    35    16    17 2   
    36    16    18 1   
    37    18    19 1   
    38    18    60 1   
    39    19    21 1   
    40    19    22 1   
    41    19    61 1   
    42    20    62 1   
    43    21    40 1   
    44    21    63 1   
    45    21    64 1   
    46    22    23 2   
    47    22    41 1   
    48    24    25 ar  
    49    24    29 ar  
    50    24    85 1   
    51    25    26 ar  
    52    25    65 1   
    53    26    27 ar  
    54    26    66 1   
    55    27    28 ar  
    56    27    30 1   
    57    28    29 ar  
    58    28    67 1   
    59    29    68 1   
    60    30    31 1   
    61    30    69 1   
    62    30    70 1   
    63    31    32 1   
    64    32    33 2   
    65    32    42 1   
    66    34    35 1   
    67    34    42 1   
    68    34    71 1   
    69    34    84 1   
    70    35    36 1   
    71    35    72 1   
    72    35    73 1   
    73    36    37 1   
    74    36    38 1   
    75    36    74 1   
    76    37    75 1   
    77    37    76 1   
    78    37    77 1   
    79    38    78 1   
    80    38    79 1   
    81    38    80 1   
    82    39    84 2   
    83    40    41 1   
    84    40    84 1   
    85    41    81 1   
    86    41    82 1   
    87    42    83 1   
@<TRIPOS>SUBSTRUCTURE
     1 PCM         1 TEMP              0 ****  ****    0 ROOT
