@<TRIPOS>MOLECULE
PCM
   85    87     1     0     0
SMALL
No Charge or Current Charge


@<TRIPOS>ATOM
      1 C1          -0.6430    -4.0920    10.6700 ca         1 PCM      -0.099000
      2 C2           0.5820    -3.9710     9.9920 ca         1 PCM      -0.116500
      3 C3           0.9250    -2.7580     9.3690 ca         1 PCM      -0.084000
      4 C4           0.0450    -1.6590     9.4200 ca         1 PCM      -0.101300
      5 C5          -1.1830    -1.7870    10.1000 ca         1 PCM      -0.084000
      6 C6          -1.5250    -3.0000    10.7240 ca         1 PCM      -0.116500
      7 C7           0.4230    -0.3470     8.7440 c3         1 PCM       0.230900
      8 O8           0.3500    -0.5320     7.3210 os         1 PCM      -0.453100
      9 C9           0.6530     0.5330     6.5320 c          1 PCM       0.638100
     10 O10          0.9580     1.6480     6.9220 o          1 PCM      -0.538000
     11 C11          0.7760     1.0230     4.0500 c3         1 PCM       0.057700
     12 C12          2.2190     0.8300     3.4970 c3         1 PCM      -0.085400
     13 C13          3.3800     1.2970     4.4220 c3         1 PCM      -0.059700
     14 C14          4.7470     0.8360     3.8650 c3         1 PCM      -0.090600
     15 C15          3.3770     2.8270     4.6540 c3         1 PCM      -0.090600
     16 C16         -0.2830     0.7280     2.9470 c          1 PCM       0.591100
     17 O17         -1.0070    -0.2620     2.9650 o          1 PCM      -0.583100
     18 N18         -0.3500     1.6750     1.9360 ns         1 PCM      -0.483900
     19 C19         -1.2970     1.4520     0.8110 c5         1 PCM      -0.016300
     20 N20          0.5360     0.1550     5.2250 ns         1 PCM      -0.484900
     21 C21         -0.6290     0.3800    -0.1110 c5         1 PCM       0.095000
     22 C22         -1.3750     2.7380    -0.0430 c          1 PCM       0.538100
     23 O23         -1.3170     3.9020     0.3360 o          1 PCM      -0.457100
     24 C24          2.6600    -3.7580   -10.1420 ca         1 PCM      -0.098000
     25 C25          1.2690    -3.7380    -9.9430 ca         1 PCM      -0.116500
     26 C26          0.6580    -2.6170    -9.3570 ca         1 PCM      -0.083500
     27 C27          1.4340    -1.5070    -8.9650 ca         1 PCM      -0.102300
     28 C28          2.8290    -1.5330    -9.1660 ca         1 PCM      -0.083500
     29 C29          3.4390    -2.6550    -9.7540 ca         1 PCM      -0.116500
     30 C30          0.7660    -0.2910    -8.3330 c3         1 PCM       0.231900
     31 O31          0.2960    -0.6570    -7.0250 os         1 PCM      -0.452100
     32 C32         -0.3170     0.3050    -6.2860 c          1 PCM       0.639100
     33 O33         -0.4800     1.4680    -6.6200 o          1 PCM      -0.547000
     34 C34         -1.3510     0.4960    -3.9830 c3         1 PCM       0.049700
     35 C35         -2.8970     0.3120    -4.0340 c3         1 PCM      -0.083400
     36 C36         -3.6300     1.0050    -5.2170 c3         1 PCM      -0.060700
     37 C37         -5.1120     0.5680    -5.2770 c3         1 PCM      -0.090600
     38 C38         -3.5230     2.5490    -5.1620 c3         1 PCM      -0.090600
     39 O40         -0.0890    -0.9810    -2.5070 o          1 PCM      -0.590100
     40 N41         -1.1070     0.7770    -1.4570 n          1 PCM      -0.412800
     41 C42         -1.4460     2.2250    -1.4840 c5         1 PCM      -0.015000
     42 N43         -0.6850    -0.2320    -5.0870 ns         1 PCM      -0.472900
     43 H1          -0.9080    -5.0310    11.1510 ha         1 PCM       0.112000
     44 H2           1.2650    -4.8160     9.9480 ha         1 PCM       0.113500
     45 H3           1.8730    -2.6730     8.8440 ha         1 PCM       0.115500
     46 H5          -1.8750    -0.9480    10.1470 ha         1 PCM       0.115500
     47 H6          -2.4730    -3.0930    11.2480 ha         1 PCM       0.113500
     48 H71          1.4400    -0.0630     9.0470 h1         1 PCM       0.058200
     49 H72         -0.2600     0.4510     9.0680 h1         1 PCM       0.058200
     50 H11          0.6300     2.0700     4.3430 h1         1 PCM       0.076700
     51 H121         2.3130     1.3600     2.5410 hc         1 PCM       0.057200
     52 H122         2.3530    -0.2340     3.2640 hc         1 PCM       0.057200
     53 H13          3.2580     0.8110     5.3970 hc         1 PCM       0.051700
     54 H141         5.5590     1.1260     4.5430 hc         1 PCM       0.036033
     55 H142         4.7740    -0.2550     3.7560 hc         1 PCM       0.036033
     56 H143         4.9420     1.2840     2.8830 hc         1 PCM       0.036033
     57 H151         3.4860     3.3660     3.7050 hc         1 PCM       0.036033
     58 H152         2.4480     3.1590     5.1300 hc         1 PCM       0.036033
     59 H153         4.2060     3.1190     5.3090 hc         1 PCM       0.036033
     60 HN8          0.2610     2.4830     2.0120 hn         1 PCM       0.320500
     61 H19         -2.3140     1.1700     1.1130 h1         1 PCM       0.111700
     62 HN2          0.2260    -0.7960     5.0700 hn         1 PCM       0.336500
     63 H211         0.4690     0.4270    -0.0710 h1         1 PCM       0.067700
     64 H212        -0.9400    -0.6390     0.1530 h1         1 PCM       0.067700
     65 H25          0.6650    -4.5920   -10.2420 ha         1 PCM       0.114500
     66 H26         -0.4190    -2.6100    -9.2040 ha         1 PCM       0.115500
     67 H28          3.4420    -0.6860    -8.8680 ha         1 PCM       0.115500
     68 H29          4.5160    -2.6700    -9.9070 ha         1 PCM       0.114500
     69 H301        -0.0680     0.0350    -8.9680 h1         1 PCM       0.056700
     70 H302         1.4850     0.5370    -8.2690 h1         1 PCM       0.056700
     71 H34         -1.1070     1.5600    -4.0730 h1         1 PCM       0.087700
     72 H351        -3.1100    -0.7640    -4.0610 hc         1 PCM       0.054700
     73 H352        -3.3410     0.6760    -3.0990 hc         1 PCM       0.054700
     74 H36         -3.1650     0.6710    -6.1520 hc         1 PCM       0.056700
     75 H371        -5.6150     1.0190    -6.1410 hc         1 PCM       0.035700
     76 H372        -5.1920    -0.5210    -5.3740 hc         1 PCM       0.035700
     77 H373        -5.6480     0.8730    -4.3700 hc         1 PCM       0.035700
     78 H381        -3.9450     2.9370    -4.2270 hc         1 PCM       0.035700
     79 H382        -2.4820     2.8820    -5.2330 hc         1 PCM       0.035700
     80 H383        -4.0690     3.0030    -5.9970 hc         1 PCM       0.035700
     81 H421        -0.7360     2.8010    -2.0910 h1         1 PCM       0.080200
     82 H422        -2.4630     2.3980    -1.8570 h1         1 PCM       0.080200
     83 HN4         -0.4300    -1.2010    -4.9430 hn         1 PCM       0.331500
     84 C39         -0.7680     0.0350    -2.6100 c          1 PCM       0.591100
     85 H24          3.1330    -4.6260   -10.5960 ha         1 PCM       0.113000
@<TRIPOS>BOND
     1     1     2 ar  
     2     1     6 ar  
     3     1    43 1   
     4     2     3 ar  
     5     2    44 1   
     6     3     4 ar  
     7     3    45 1   
     8     4     5 ar  
     9     4     7 1   
    10     5     6 ar  
    11     5    46 1   
    12     6    47 1   
    13     7     8 1   
    14     7    48 1   
    15     7    49 1   
    16     8     9 1   
    17     9    10 2   
    18     9    20 1   
    19    11    12 1   
    20    11    16 1   
    21    11    20 1   
    22    11    50 1   
    23    12    13 1   
    24    12    51 1   
    25    12    52 1   
    26    13    14 1   
    27    13    15 1   
    28    13    53 1   
    29    14    54 1   
    30    14    55 1   
    31    14    56 1   
    32    15    57 1   
    33    15    58 1   
    34    15    59 1   
    35    16    17 2   
    36    16    18 1   
    37    18    19 1   
    38    18    60 1   
    39    19    21 1   
    40    19    22 1   
    41    19    61 1   
    42    20    62 1   
    43    21    40 1   
    44    21    63 1   
    45    21    64 1   
    46    22    23 2   
    47    22    41 1   
    48    24    25 ar  
    49    24    29 ar  
    50    24    85 1   
    51    25    26 ar  
    52    25    65 1   
    53    26    27 ar  
    54    26    66 1   
    55    27    28 ar  
    56    27    30 1   
    57    28    29 ar  
    58    28    67 1   
    59    29    68 1   
    60    30    31 1   
    61    30    69 1   
    62    30    70 1   
    63    31    32 1   
    64    32    33 2   
    65    32    42 1   
    66    34    35 1   
    67    34    42 1   
    68    34    71 1   
    69    34    84 1   
    70    35    36 1   
    71    35    72 1   
    72    35    73 1   
    73    36    37 1   
    74    36    38 1   
    75    36    74 1   
    76    37    75 1   
    77    37    76 1   
    78    37    77 1   
    79    38    78 1   
    80    38    79 1   
    81    38    80 1   
    82    39    84 2   
    83    40    41 1   
    84    40    84 1   
    85    41    81 1   
    86    41    82 1   
    87    42    83 1   
@<TRIPOS>SUBSTRUCTURE
     1 PCM         1 TEMP              0 ****  ****    0 ROOT
