@<TRIPOS>MOLECULE
PCN
   44    45     1     0     0
SMALL
abcg2


@<TRIPOS>ATOM
      1 O1          77.6940     4.1990    31.4740 o          1 PCN      -0.525100
      2 C1          77.3360     5.2300    30.9600 c          1 PCN       0.568900
      3 C2          78.2600     6.3720    30.5770 c3         1 PCN       0.006700
      4 C3          78.0610     6.7060    29.0820 c5         1 PCN       0.351500
      5 S4          78.7070     8.4050    28.7130 ss         1 PCN      -0.583000
      6 C5          79.6850     7.8260    27.2530 c5         1 PCN       0.139000
      7 C51         80.9680     8.6450    27.1600 c3         1 PCN      -0.070100
      8 C52         78.8530     7.9760    25.9790 c3         1 PCN      -0.070100
      9 C6          79.9600     6.3380    27.6270 c5         1 PCN       0.028500
     10 C61         80.4080     5.4950    26.4070 c          1 PCN       0.721000
     11 O62         81.6140     5.6020    26.0780 o          1 PCN      -0.717000
     12 O63         79.5310     4.7960    25.8420 o          1 PCN      -0.717000
     13 N7          78.7580     5.7670    28.2270 n7         1 PCN      -0.864400
     14 N8          79.6320     6.0680    30.8790 ns         1 PCN      -0.455900
     15 C9          80.3240     6.6360    31.8770 c          1 PCN       0.516800
     16 O91         79.8960     7.5110    32.6200 o          1 PCN      -0.603100
     17 C10         81.7280     6.0880    32.0610 ce         1 PCN       0.278300
     18 N11         82.7570     6.6520    31.5470 n2         1 PCN      -0.261700
     19 O12         82.4190     7.7600    30.7790 os         1 PCN      -0.302000
     20 C13         83.6010     8.3140    30.1950 c3         1 PCN       0.153900
     21 C14         81.8830     4.9070    32.9030 cc         1 PCN       0.298700
     22 C15         80.8290     4.1860    33.3840 cd         1 PCN      -0.234000
     23 S16         81.3970     2.8570    34.3260 ss         1 PCN      -0.124400
     24 C17         83.0490     3.3800    34.0020 cd         1 PCN       0.689300
     25 N18         83.1380     4.4430    33.2550 nc         1 PCN      -0.687000
     26 N19         84.1090     2.7370    34.5550 nv         1 PCN      -1.050900
     27 HC1         76.2720     5.4150    30.7260 h4         1 PCN      -0.020800
     28 HC2         77.9510     7.2300    31.1800 h1         1 PCN       0.099700
     29 HC3         76.9920     6.6820    28.8710 h2         1 PCN       0.052700
     30 H511        81.5650     8.5360    28.0640 hc         1 PCN       0.040700
     31 H512        81.5580     8.2980    26.3110 hc         1 PCN       0.040700
     32 H513        80.7460     9.7030    27.0130 hc         1 PCN       0.040700
     33 H521        78.5810     9.0210    25.8300 hc         1 PCN       0.040700
     34 H522        79.4290     7.6450    25.1120 hc         1 PCN       0.040700
     35 H523        77.9370     7.3870    26.0260 hc         1 PCN       0.040700
     36 HC6         80.7740     6.3390    28.3520 h1         1 PCN       0.069700
     37 HN7         78.1690     5.4300    27.4750 hn         1 PCN       0.457000
     38 HN8         80.0620     5.3270    30.3440 hn         1 PCN       0.352500
     39 H131        84.0490     7.6090    29.4930 h1         1 PCN       0.041700
     40 H132        83.2740     9.2070    29.6670 h1         1 PCN       0.041700
     41 H133        84.3210     8.5810    30.9700 h1         1 PCN       0.041700
     42 H15         79.7750     4.3400    33.2200 h4         1 PCN       0.183000
     43 H191        83.9850     1.7840    34.8610 hn         1 PCN       0.476000
     44 H192        85.0110     2.9430    34.1510 hn         1 PCN       0.476000
@<TRIPOS>BOND
     1     1     2 2   
     2     2     3 1   
     3     2    27 1   
     4     3     4 1   
     5     3    14 1   
     6     3    28 1   
     7     4     5 1   
     8     4    13 1   
     9     4    29 1   
    10     5     6 1   
    11     6     7 1   
    12     6     8 1   
    13     6     9 1   
    14     7    30 1   
    15     7    31 1   
    16     7    32 1   
    17     8    33 1   
    18     8    34 1   
    19     8    35 1   
    20     9    10 1   
    21     9    13 1   
    22     9    36 1   
    23    10    11 1   
    24    10    12 1   
    25    13    37 1   
    26    14    15 1   
    27    14    38 1   
    28    15    16 2   
    29    15    17 1   
    30    17    18 2   
    31    17    21 1   
    32    18    19 1   
    33    19    20 1   
    34    20    39 1   
    35    20    40 1   
    36    20    41 1   
    37    21    22 2   
    38    21    25 1   
    39    22    23 1   
    40    22    42 1   
    41    23    24 1   
    42    24    25 2   
    43    24    26 1   
    44    26    43 1   
    45    26    44 1   
@<TRIPOS>SUBSTRUCTURE
     1 PCN         1 TEMP              0 ****  ****    0 ROOT
