@<TRIPOS>MOLECULE
PCN
   44    45     1     0     0
SMALL
No Charge or Current Charge


@<TRIPOS>ATOM
      1 O1          77.7890     3.1970    29.0160 o          1 PCN      -0.525100
      2 C1          77.2350     4.2810    29.1890 c          1 PCN       0.568900
      3 C2          77.8970     5.4990    29.8620 c3         1 PCN       0.006700
      4 C3          77.7180     6.7470    28.9420 c5         1 PCN       0.351500
      5 S4          78.5640     8.2670    29.5850 ss         1 PCN      -0.583000
      6 C5          79.9070     8.2310    28.2970 c5         1 PCN       0.139000
      7 C51         81.2730     8.3440    29.0170 c3         1 PCN      -0.070100
      8 C52         79.7040     9.4830    27.4010 c3         1 PCN      -0.070100
      9 C6          79.7140     6.8550    27.5710 c5         1 PCN       0.028500
     10 C61         80.4300     6.8880    26.1570 c          1 PCN       0.721000
     11 O62         81.5900     6.5060    26.0740 o          1 PCN      -0.717000
     12 O63         79.7860     7.1930    25.1590 o          1 PCN      -0.717000
     13 N7          78.2230     6.5980    27.5640 n7         1 PCN      -0.864400
     14 N8          79.2800     5.1650    30.3120 ns         1 PCN      -0.455900
     15 C9          79.8450     5.5240    31.5260 c          1 PCN       0.516800
     16 O91         79.1930     6.1480    32.3570 o          1 PCN      -0.603100
     17 C10         81.2810     5.0770    31.7550 ce         1 PCN       0.278300
     18 N11         81.9060     4.3080    30.9020 n2         1 PCN      -0.261700
     19 O12         82.0030     4.8320    29.5960 os         1 PCN      -0.302000
     20 C13         82.7400     3.9330    28.7510 c3         1 PCN       0.153900
     21 C14         81.9030     5.4110    33.0480 cc         1 PCN       0.298700
     22 C15         81.3500     5.2010    34.2950 cd         1 PCN      -0.234000
     23 S16         82.4520     5.6800    35.5760 ss         1 PCN      -0.124400
     24 C17         83.5740     6.0910    34.2980 cd         1 PCN       0.689300
     25 N18         83.1970     5.9020    33.0650 nc         1 PCN      -0.687000
     26 N19         84.8130     6.5580    34.4870 nv         1 PCN      -1.050900
     27 HC1         76.1820     4.4370    28.8630 h4         1 PCN      -0.020800
     28 HC2         77.2920     5.6940    30.7550 h1         1 PCN       0.099700
     29 HC3         76.6400     6.9570    28.9060 h2         1 PCN       0.052700
     30 H511        81.4150     7.5250    29.7300 hc         1 PCN       0.040700
     31 H512        82.1040     8.3120    28.3030 hc         1 PCN       0.040700
     32 H513        81.3520     9.2840    29.5770 hc         1 PCN       0.040700
     33 H521        79.7110    10.4020    27.9990 hc         1 PCN       0.040700
     34 H522        80.4990     9.5790    26.6520 hc         1 PCN       0.040700
     35 H523        78.7450     9.4450    26.8700 hc         1 PCN       0.040700
     36 HC6         80.2190     6.0630    28.1330 h1         1 PCN       0.069700
     37 HN7         77.7880     7.3300    26.9890 hn         1 PCN       0.457000
     38 HN8         79.8850     4.6530    29.6770 hn         1 PCN       0.352500
     39 H131        82.2420     2.9570    28.6900 h1         1 PCN       0.041700
     40 H132        82.8170     4.3410    27.7360 h1         1 PCN       0.041700
     41 H133        83.7580     3.7820    29.1350 h1         1 PCN       0.041700
     42 H15         80.3700     4.8000    34.5270 h4         1 PCN       0.183000
     43 H191        85.2330     6.3940    35.3950 hn         1 PCN       0.476000
     44 H192        85.4280     6.4990    33.6850 hn         1 PCN       0.476000
@<TRIPOS>BOND
     1     1     2 2   
     2     2     3 1   
     3     2    27 1   
     4     3     4 1   
     5     3    14 1   
     6     3    28 1   
     7     4     5 1   
     8     4    13 1   
     9     4    29 1   
    10     5     6 1   
    11     6     7 1   
    12     6     8 1   
    13     6     9 1   
    14     7    30 1   
    15     7    31 1   
    16     7    32 1   
    17     8    33 1   
    18     8    34 1   
    19     8    35 1   
    20     9    10 1   
    21     9    13 1   
    22     9    36 1   
    23    10    11 1   
    24    10    12 1   
    25    13    37 1   
    26    14    15 1   
    27    14    38 1   
    28    15    16 2   
    29    15    17 1   
    30    17    18 2   
    31    17    21 1   
    32    18    19 1   
    33    19    20 1   
    34    20    39 1   
    35    20    40 1   
    36    20    41 1   
    37    21    22 2   
    38    21    25 1   
    39    22    23 1   
    40    22    42 1   
    41    23    24 1   
    42    24    25 2   
    43    24    26 1   
    44    26    43 1   
    45    26    44 1   
@<TRIPOS>SUBSTRUCTURE
     1 PCN         1 TEMP              0 ****  ****    0 ROOT
