@<TRIPOS>MOLECULE
PCO
   38    37     1     0     0
SMALL
No Charge or Current Charge


@<TRIPOS>ATOM
      1 C23          0.5710    -0.5270    -4.8700 c2         1 PCO      -0.002400
      2 N19          0.3290    -0.3370    -3.4990 ns         1 PCO      -0.421100
      3 C17          1.0580    -0.8400    -2.4450 c          1 PCO       0.610100
      4 C16          0.5370    -0.4740    -1.0570 c3         1 PCO      -0.187400
      5 C15          1.4680     0.5480    -0.3800 c3         1 PCO       0.114000
      6 N14          0.9710     0.9350     0.9430 ns         1 PCO      -0.495900
      7 C12          1.0990     0.1680     2.0850 c          1 PCO       0.563100
      8 C10          0.4650     0.7690     3.3840 c3         1 PCO       0.100300
      9 C7          -0.9580     0.1840     3.7240 c3         1 PCO      -0.065000
     10 C6          -0.8660    -1.3470     4.0400 c3         1 PCO       0.166600
     11 O5          -2.1490    -1.9030     4.3650 oh         1 PCO      -0.663000
     12 C8          -1.9120     0.4140     2.5130 c3         1 PCO      -0.081600
     13 C9          -1.5420     0.9510     4.9510 c3         1 PCO      -0.081600
     14 O11          1.3660     0.6140     4.5120 oh         1 PCO      -0.644000
     15 O13          1.7310    -0.8810     2.0890 o          1 PCO      -0.612100
     16 O18          2.0370    -1.5540    -2.6100 o          1 PCO      -0.569100
     17 C24         -0.2030     0.0140    -5.8220 c2         1 PCO      -0.196400
     18 S25         -1.6310     1.0380    -5.4600 sh         1 PCO      -0.389400
     19 HC23         1.4400    -1.1500    -5.1000 h4         1 PCO       0.218000
     20 HN19        -0.4700     0.2330    -3.2500 hn         1 PCO       0.335500
     21 H161         0.5080    -1.3820    -0.4440 hc         1 PCO       0.072200
     22 H162        -0.4670    -0.0400    -1.1300 hc         1 PCO       0.072200
     23 H151         1.5450     1.4500    -1.0040 h1         1 PCO       0.073200
     24 H152         2.4780     0.1240    -0.2770 h1         1 PCO       0.073200
     25 HN14         0.4670     1.8110     1.0290 hn         1 PCO       0.319500
     26 HC10         0.3360     1.8420     3.1870 h1         1 PCO       0.072700
     27 HC61        -0.4510    -1.8740     3.1700 h1         1 PCO       0.027200
     28 HC62        -0.1740    -1.5060     4.8780 h1         1 PCO       0.027200
     29 HO5         -2.0080    -2.8560     4.5590 ho         1 PCO       0.445000
     30 HC81        -1.6070    -0.1800     1.6430 hc         1 PCO       0.040367
     31 HC82        -2.9430     0.1300     2.7580 hc         1 PCO       0.040367
     32 HC83        -1.9240     1.4710     2.2170 hc         1 PCO       0.040367
     33 HC91        -0.9550     0.7610     5.8570 hc         1 PCO       0.040367
     34 HC92        -1.5460     2.0330     4.7700 hc         1 PCO       0.040367
     35 HC93        -2.5760     0.6470     5.1570 hc         1 PCO       0.040367
     36 HO11         1.9000    -0.1950     4.3380 ho         1 PCO       0.468000
     37 HC24         0.0020    -0.1460    -6.8830 h4         1 PCO       0.204000
     38 HS25        -1.9990     1.2840    -6.7430 hs         1 PCO       0.207800
@<TRIPOS>BOND
     1     1     2 1   
     2     1    17 2   
     3     1    19 1   
     4     2     3 1   
     5     2    20 1   
     6     3     4 1   
     7     3    16 2   
     8     4     5 1   
     9     4    21 1   
    10     4    22 1   
    11     5     6 1   
    12     5    23 1   
    13     5    24 1   
    14     6     7 1   
    15     6    25 1   
    16     7     8 1   
    17     7    15 2   
    18     8     9 1   
    19     8    14 1   
    20     8    26 1   
    21     9    10 1   
    22     9    12 1   
    23     9    13 1   
    24    10    11 1   
    25    10    27 1   
    26    10    28 1   
    27    11    29 1   
    28    12    30 1   
    29    12    31 1   
    30    12    32 1   
    31    13    33 1   
    32    13    34 1   
    33    13    35 1   
    34    14    36 1   
    35    17    18 1   
    36    17    37 1   
    37    18    38 1   
@<TRIPOS>SUBSTRUCTURE
     1 PCO         1 TEMP              0 ****  ****    0 ROOT
