@<TRIPOS>MOLECULE
PCO
   38    37     1     0     0
SMALL
abcg2


@<TRIPOS>ATOM
      1 C23          0.4820    -0.6890    -4.6710 c2         1 PCO      -0.002400
      2 N19          0.2230    -0.3770    -3.3540 ns         1 PCO      -0.421100
      3 C17          1.1900    -0.2030    -2.4090 c          1 PCO       0.610100
      4 C16          0.6600     0.0890    -1.0260 c3         1 PCO      -0.187400
      5 C15          1.6690     0.8440    -0.1670 c3         1 PCO       0.114000
      6 N14          1.1590     1.1010     1.1610 ns         1 PCO      -0.495900
      7 C12          1.2180     0.2090     2.1530 c          1 PCO       0.563100
      8 C10          0.5690     0.6110     3.4790 c3         1 PCO       0.100300
      9 C7          -0.9310     0.2130     3.5790 c3         1 PCO      -0.065000
     10 C6          -1.0880    -1.3020     3.4250 c3         1 PCO       0.166600
     11 O5          -2.4390    -1.6520     3.6290 oh         1 PCO      -0.663000
     12 C8          -1.7400     0.9380     2.5010 c3         1 PCO      -0.081600
     13 C9          -1.4330     0.6650     4.9550 c3         1 PCO      -0.081600
     14 O11          1.3410     0.0800     4.5220 oh         1 PCO      -0.644000
     15 O13          1.7750    -0.8790     2.0490 o          1 PCO      -0.612100
     16 O18          2.3760    -0.2980    -2.6580 o          1 PCO      -0.569100
     17 C24         -0.4440    -0.8760    -5.6140 c2         1 PCO      -0.196400
     18 S25         -2.1760    -0.8540    -5.2650 sh         1 PCO      -0.389400
     19 HC23         1.5290    -0.7850    -4.9230 h4         1 PCO       0.218000
     20 HN19        -0.7440    -0.2600    -3.0840 hn         1 PCO       0.335500
     21 H161         0.4160    -0.8700    -0.5570 hc         1 PCO       0.072200
     22 H162        -0.2760     0.6490    -1.0870 hc         1 PCO       0.072200
     23 H151         1.9050     1.8060    -0.6200 h1         1 PCO       0.073200
     24 H152         2.5990     0.2850    -0.0900 h1         1 PCO       0.073200
     25 HN14         0.7000     1.9820     1.3260 hn         1 PCO       0.319500
     26 HC10         0.6100     1.7030     3.5730 h1         1 PCO       0.072700
     27 HC61        -0.7590    -1.6070     2.4240 h1         1 PCO       0.027200
     28 HC62        -0.4400    -1.8140     4.1490 h1         1 PCO       0.027200
     29 HO5         -2.5130    -2.6060     3.5390 ho         1 PCO       0.445000
     30 HC81        -1.4910     0.6030     1.4930 hc         1 PCO       0.040367
     31 HC82        -2.8060     0.7680     2.6450 hc         1 PCO       0.040367
     32 HC83        -1.5780     2.0180     2.5460 hc         1 PCO       0.040367
     33 HC91        -0.9290     0.1420     5.7680 hc         1 PCO       0.040367
     34 HC92        -1.2670     1.7360     5.0900 hc         1 PCO       0.040367
     35 HC93        -2.5030     0.4860     5.0540 hc         1 PCO       0.040367
     36 HO11         1.6920    -0.7680     4.2210 ho         1 PCO       0.468000
     37 HC24        -0.1300    -1.1170    -6.6200 h4         1 PCO       0.204000
     38 HS25        -2.5020     0.2570    -5.9400 hs         1 PCO       0.207800
@<TRIPOS>BOND
     1     1     2 1   
     2     1    17 2   
     3     1    19 1   
     4     2     3 1   
     5     2    20 1   
     6     3     4 1   
     7     3    16 2   
     8     4     5 1   
     9     4    21 1   
    10     4    22 1   
    11     5     6 1   
    12     5    23 1   
    13     5    24 1   
    14     6     7 1   
    15     6    25 1   
    16     7     8 1   
    17     7    15 2   
    18     8     9 1   
    19     8    14 1   
    20     8    26 1   
    21     9    10 1   
    22     9    12 1   
    23     9    13 1   
    24    10    11 1   
    25    10    27 1   
    26    10    28 1   
    27    11    29 1   
    28    12    30 1   
    29    12    31 1   
    30    12    32 1   
    31    13    33 1   
    32    13    34 1   
    33    13    35 1   
    34    14    36 1   
    35    17    18 1   
    36    17    37 1   
    37    18    38 1   
@<TRIPOS>SUBSTRUCTURE
     1 PCO         1 TEMP              0 ****  ****    0 ROOT
