@<TRIPOS>MOLECULE
PCQ
   24    25     1     0     0
SMALL
No Charge or Current Charge


@<TRIPOS>ATOM
      1 Cl1          2.5850    -0.7770     3.7610 cl         1 PCQ      -0.180500
      2 Cl2         -2.6760     0.9170     3.6690 cl         1 PCQ      -0.180500
      3 O1          -0.0610     0.0660     4.9490 oh         1 PCQ      -0.504600
      4 C1           0.0080     0.0750     0.7260 cp         1 PCQ      -0.055500
      5 C2           1.1520    -0.2960     1.4770 ca         1 PCQ      -0.051250
      6 C3           1.1300    -0.3000     2.8820 ca         1 PCQ       0.049250
      7 C4          -0.0400     0.0690     3.5760 ca         1 PCQ       0.168100
      8 C5          -1.1880     0.4420     2.8450 ca         1 PCQ       0.049250
      9 C6          -1.1610     0.4430     1.4390 ca         1 PCQ      -0.051250
     10 Cl3         -2.5310    -0.8020    -3.8080 cl         1 PCQ      -0.180500
     11 Cl4          2.7030     0.9700    -3.7110 cl         1 PCQ      -0.180500
     12 O2           0.1010     0.0850    -4.9930 oh         1 PCQ      -0.504600
     13 C7           0.0330     0.0780    -0.7710 cp         1 PCQ      -0.055500
     14 C8          -1.1050    -0.3080    -1.5230 ca         1 PCQ      -0.051250
     15 C9          -1.0840    -0.3060    -2.9280 ca         1 PCQ       0.049250
     16 C10          0.0810     0.0830    -3.6210 ca         1 PCQ       0.168100
     17 C11          1.2230     0.4700    -2.8880 ca         1 PCQ       0.049250
     18 C12          1.1960     0.4660    -1.4830 ca         1 PCQ      -0.051250
     19 HO1          0.8240    -0.2200     5.2660 ho         1 PCQ       0.484000
     20 H21          2.0620    -0.5990     0.9660 ha         1 PCQ       0.136500
     21 H61         -2.0530     0.7470     0.8990 ha         1 PCQ       0.136500
     22 H1          -0.7790    -0.2130    -5.3120 ho         1 PCQ       0.484000
     23 H2'1        -2.0110    -0.6260    -1.0130 ha         1 PCQ       0.136500
     24 H6'1         2.0840     0.7810    -0.9420 ha         1 PCQ       0.136500
@<TRIPOS>BOND
     1     1     6 1   
     2     2     8 1   
     3     3     7 1   
     4     3    19 1   
     5     4     5 ar  
     6     4     9 ar  
     7     4    13 1   
     8     5     6 ar  
     9     5    20 1   
    10     6     7 ar  
    11     7     8 ar  
    12     8     9 ar  
    13     9    21 1   
    14    10    15 1   
    15    11    17 1   
    16    12    16 1   
    17    12    22 1   
    18    13    14 ar  
    19    13    18 ar  
    20    14    15 ar  
    21    14    23 1   
    22    15    16 ar  
    23    16    17 ar  
    24    17    18 ar  
    25    18    24 1   
@<TRIPOS>SUBSTRUCTURE
     1 PCQ         1 TEMP              0 ****  ****    0 ROOT
