@<TRIPOS>MOLECULE
PCQ
   24    25     1     0     0
SMALL
bcc


@<TRIPOS>ATOM
      1 CL1          2.5200    -0.8020     3.7040 cl         1 PCQ      -0.088900
      2 CL2         -2.5570     0.9270     3.6510 cl         1 PCQ      -0.088900
      3 O1          -0.0920     0.0900     4.8690 oh         1 PCQ      -0.465600
      4 C1           0.0130     0.0690     0.7150 cp         1 PCQ      -0.055500
      5 C2           1.1390    -0.3140     1.4370 ca         1 PCQ      -0.069250
      6 C3           1.1160    -0.3090     2.8190 ca         1 PCQ      -0.042350
      7 C4          -0.0170     0.0690     3.5400 ca         1 PCQ       0.168100
      8 C5          -1.1370     0.4450     2.7980 ca         1 PCQ      -0.042350
      9 C6          -1.1290     0.4490     1.4170 ca         1 PCQ      -0.069250
     10 CL3         -2.4660    -0.8260    -3.7530 cl         1 PCQ      -0.088900
     11 CL4          2.5850     0.9800    -3.6920 cl         1 PCQ      -0.088900
     12 O2           0.1330     0.1090    -4.9140 oh         1 PCQ      -0.465600
     13 C7           0.0270     0.0710    -0.7590 cp         1 PCQ      -0.055500
     14 C8          -1.0930    -0.3250    -1.4830 ca         1 PCQ      -0.069250
     15 C9          -1.0690    -0.3160    -2.8650 ca         1 PCQ      -0.042350
     16 C10          0.0580     0.0820    -3.5840 ca         1 PCQ       0.168100
     17 C11          1.1730     0.4720    -2.8410 ca         1 PCQ      -0.042350
     18 C12          1.1630     0.4710    -1.4600 ca         1 PCQ      -0.069250
     19 HO1          0.7410    -0.1890     5.2710 ho         1 PCQ       0.445000
     20 H21          2.0360    -0.6400     0.9270 ha         1 PCQ       0.154500
     21 H61         -2.0150     0.7720     0.8880 ha         1 PCQ       0.154500
     22 H1          -0.6960    -0.1810    -5.3170 ho         1 PCQ       0.445000
     23 H2'1        -1.9850    -0.6650    -0.9750 ha         1 PCQ       0.154500
     24 H6'1         2.0450     0.8060    -0.9300 ha         1 PCQ       0.154500
@<TRIPOS>BOND
     1     1     6 1   
     2     2     8 1   
     3     3     7 1   
     4     3    19 1   
     5     4     5 ar  
     6     4     9 ar  
     7     4    13 1   
     8     5     6 ar  
     9     5    20 1   
    10     6     7 ar  
    11     7     8 ar  
    12     8     9 ar  
    13     9    21 1   
    14    10    15 1   
    15    11    17 1   
    16    12    16 1   
    17    12    22 1   
    18    13    14 ar  
    19    13    18 ar  
    20    14    15 ar  
    21    14    23 1   
    22    15    16 ar  
    23    16    17 ar  
    24    17    18 ar  
    25    18    24 1   
@<TRIPOS>SUBSTRUCTURE
     1 PCQ         1 TEMP              0 ****  ****    0 ROOT
