@<TRIPOS>MOLECULE
PCR
   16    16     1     0     0
SMALL
No Charge or Current Charge


@<TRIPOS>ATOM
      1 CB          -0.0690     0.0370     2.9390 c3         1 PCR      -0.045800
      2 CG           0.0180    -0.0160     1.4210 ca         1 PCR      -0.082300
      3 CD1          1.2650     0.0970     0.7770 ca         1 PCR      -0.099500
      4 CE1          1.3430     0.0510    -0.6270 ca         1 PCR      -0.129500
      5 CD2         -1.1490    -0.1730     0.6480 ca         1 PCR      -0.099500
      6 CE2         -1.0700    -0.2190    -0.7550 ca         1 PCR      -0.129500
      7 CZ           0.1780    -0.1080    -1.3930 ca         1 PCR       0.096100
      8 OH           0.2640    -0.1510    -2.7530 oh         1 PCR      -0.564100
      9 HB1          0.8420    -0.3550     3.4060 hc         1 PCR       0.042700
     10 HB2         -0.2060     1.0680     3.2860 hc         1 PCR       0.042700
     11 HB3         -0.9110    -0.5570     3.3130 hc         1 PCR       0.042700
     12 HD11         2.1730     0.2220     1.3620 ha         1 PCR       0.112000
     13 HE11         2.3090     0.1380    -1.1190 ha         1 PCR       0.121500
     14 HD21        -2.1190    -0.2580     1.1350 ha         1 PCR       0.112000
     15 HE21        -1.9800    -0.3410    -1.3390 ha         1 PCR       0.121500
     16 HO1         -0.6400    -0.2650    -3.1220 ho         1 PCR       0.458000
@<TRIPOS>BOND
     1     1     2 1   
     2     1     9 1   
     3     1    10 1   
     4     1    11 1   
     5     2     3 ar  
     6     2     5 ar  
     7     3     4 ar  
     8     3    12 1   
     9     4     7 ar  
    10     4    13 1   
    11     5     6 ar  
    12     5    14 1   
    13     6     7 ar  
    14     6    15 1   
    15     7     8 1   
    16     8    16 1   
@<TRIPOS>SUBSTRUCTURE
     1 PCR         1 TEMP              0 ****  ****    0 ROOT
