@<TRIPOS>MOLECULE
PCR
   16    16     1     0     0
SMALL
abcg2


@<TRIPOS>ATOM
      1 CB          -0.0240    -0.0100     2.9280 c3         1 PCR      -0.045800
      2 CG          -0.0030    -0.0210     1.4270 ca         1 PCR      -0.082300
      3 CD1          1.2020     0.0090     0.7270 ca         1 PCR      -0.099500
      4 CE1          1.2320     0.0250    -0.6600 ca         1 PCR      -0.129500
      5 CD2         -1.1830    -0.0380     0.6880 ca         1 PCR      -0.099500
      6 CE2         -1.1660    -0.0210    -0.7010 ca         1 PCR      -0.129500
      7 CZ           0.0440     0.0120    -1.3820 ca         1 PCR       0.096100
      8 OH           0.0670     0.0710    -2.7510 oh         1 PCR      -0.564100
      9 HB1          0.8050    -0.5820     3.3440 hc         1 PCR       0.042700
     10 HB2          0.0620     1.0080     3.3140 hc         1 PCR       0.042700
     11 HB3         -0.9520    -0.4270     3.3190 hc         1 PCR       0.042700
     12 HD11         2.1370     0.0170     1.2760 ha         1 PCR       0.112000
     13 HE11         2.1790     0.0520    -1.1850 ha         1 PCR       0.121500
     14 HD21        -2.1360    -0.0690     1.2030 ha         1 PCR       0.112000
     15 HE21        -2.0970    -0.0320    -1.2560 ha         1 PCR       0.121500
     16 HO1          0.0820    -0.8210    -3.1140 ho         1 PCR       0.458000
@<TRIPOS>BOND
     1     1     2 1   
     2     1     9 1   
     3     1    10 1   
     4     1    11 1   
     5     2     3 ar  
     6     2     5 ar  
     7     3     4 ar  
     8     3    12 1   
     9     4     7 ar  
    10     4    13 1   
    11     5     6 ar  
    12     5    14 1   
    13     6     7 ar  
    14     6    15 1   
    15     7     8 1   
    16     8    16 1   
@<TRIPOS>SUBSTRUCTURE
     1 PCR         1 TEMP              0 ****  ****    0 ROOT
