@<TRIPOS>MOLECULE
PCS
   25    25     1     0     0
SMALL
bcc


@<TRIPOS>ATOM
      1 N            1.5960     1.1410     0.0340 n8         1 PCS      -0.876800
      2 CA           0.3450     0.5200     0.4020 c3         1 PCS       0.069500
      3 C            0.3800     0.1410     1.8720 c          1 PCS       0.570100
      4 CB          -0.0250    -0.7570    -0.3940 c3         1 PCS      -0.071100
      5 O            1.3770    -0.2650     2.4090 o          1 PCS      -0.474100
      6 CD1          0.8860    -0.7060    -2.7410 ca         1 PCS      -0.126500
      7 CG          -0.1650    -0.4670    -1.8600 ca         1 PCS      -0.092300
      8 CD2         -1.3430     0.0860    -2.3600 ca         1 PCS      -0.126500
      9 CE2         -1.4690     0.3870    -3.7090 ca         1 PCS      -0.123500
     10 CZ          -0.4150     0.1400    -4.5800 ca         1 PCS      -0.124000
     11 CE1          0.7630    -0.4080    -4.0930 ca         1 PCS      -0.123500
     12 CT          -0.9390     0.2930     2.5870 c3         1 PCS      -0.075000
     13 CL1         -0.9130    -0.4070     4.2170 cl         1 PCS      -0.152400
     14 H            2.3470     0.4620     0.0620 hn         1 PCS       0.355800
     15 H2           1.5430     1.4720    -0.9200 hn         1 PCS       0.355800
     16 HA          -0.4560     1.2520     0.2510 h1         1 PCS       0.072700
     17 HB2          0.7540    -1.5080    -0.2310 hc         1 PCS       0.059200
     18 HB3         -0.9590    -1.1800    -0.0120 hc         1 PCS       0.059200
     19 HD2         -2.1720     0.2770    -1.6880 ha         1 PCS       0.129000
     20 HE2         -2.3930     0.8120    -4.0810 ha         1 PCS       0.133500
     21 HZ          -0.5150     0.3690    -5.6330 ha         1 PCS       0.134000
     22 HE1          1.5880    -0.6060    -4.7650 ha         1 PCS       0.133500
     23 HT1         -1.1730     1.3560     2.6670 h1         1 PCS       0.083200
     24 HT2         -1.7430    -0.1740     2.0150 h1         1 PCS       0.083200
     25 HD1          1.8070    -1.1390    -2.3690 ha         1 PCS       0.129000
@<TRIPOS>BOND
     1     1     2 1   
     2     1    14 1   
     3     1    15 1   
     4     2     3 1   
     5     2     4 1   
     6     2    16 1   
     7     3     5 2   
     8     3    12 1   
     9     4     7 1   
    10     4    17 1   
    11     4    18 1   
    12     6     7 ar  
    13     6    11 ar  
    14     6    25 1   
    15     7     8 ar  
    16     8     9 ar  
    17     8    19 1   
    18     9    10 ar  
    19     9    20 1   
    20    10    11 ar  
    21    10    21 1   
    22    11    22 1   
    23    12    13 1   
    24    12    23 1   
    25    12    24 1   
@<TRIPOS>SUBSTRUCTURE
     1 PCS         1 TEMP              0 ****  ****    0 ROOT
