@<TRIPOS>MOLECULE
PCS
   25    25     1     0     0
SMALL
No Charge or Current Charge


@<TRIPOS>ATOM
      1 N            1.5400     1.2530    -0.1010 n8         1 PCS      -0.876800
      2 CA           0.3310     0.5640     0.4580 c3         1 PCS       0.069500
      3 C            0.3850     0.2240     1.9890 c          1 PCS       0.570100
      4 CB          -0.0090    -0.6890    -0.3920 c3         1 PCS      -0.071100
      5 O            1.4450     0.1570     2.6080 o          1 PCS      -0.474100
      6 CD1          0.8260    -0.8640    -2.7950 ca         1 PCS      -0.126500
      7 CG          -0.1410    -0.3950    -1.8850 ca         1 PCS      -0.092300
      8 CD2         -1.2390     0.3470    -2.3650 ca         1 PCS      -0.126500
      9 CE2         -1.3650     0.6210    -3.7380 ca         1 PCS      -0.123500
     10 CZ          -0.3950     0.1520    -4.6410 ca         1 PCS      -0.124000
     11 CE1          0.7000    -0.5910    -4.1690 ca         1 PCS      -0.123500
     12 CT          -0.9730    -0.0100     2.6720 c3         1 PCS      -0.075000
     13 Cl1         -0.9080     0.0210     4.4940 cl         1 PCS      -0.152400
     14 H            2.3670     0.6660     0.0540 hn         1 PCS       0.355800
     15 H2           1.4500     1.2910    -1.1230 hn         1 PCS       0.355800
     16 HA          -0.5090     1.2650     0.3420 h1         1 PCS       0.072700
     17 HB2          0.7580    -1.4560    -0.2200 hc         1 PCS       0.059200
     18 HB3         -0.9490    -1.1240    -0.0310 hc         1 PCS       0.059200
     19 HD2         -1.9960     0.7120    -1.6740 ha         1 PCS       0.129000
     20 HE2         -2.2150     1.1950    -4.1030 ha         1 PCS       0.133500
     21 HZ          -0.4930     0.3640    -5.7040 ha         1 PCS       0.134000
     22 HE1          1.4520    -0.9550    -4.8670 ha         1 PCS       0.133500
     23 HT1         -1.6710     0.7710     2.3500 h1         1 PCS       0.083200
     24 HT2         -1.3610    -0.9870     2.3620 h1         1 PCS       0.083200
     25 HD1          1.6780    -1.4410    -2.4410 ha         1 PCS       0.129000
@<TRIPOS>BOND
     1     1     2 1   
     2     1    14 1   
     3     1    15 1   
     4     2     3 1   
     5     2     4 1   
     6     2    16 1   
     7     3     5 2   
     8     3    12 1   
     9     4     7 1   
    10     4    17 1   
    11     4    18 1   
    12     6     7 ar  
    13     6    11 ar  
    14     6    25 1   
    15     7     8 ar  
    16     8     9 ar  
    17     8    19 1   
    18     9    10 ar  
    19     9    20 1   
    20    10    11 ar  
    21    10    21 1   
    22    11    22 1   
    23    12    13 1   
    24    12    23 1   
    25    12    24 1   
@<TRIPOS>SUBSTRUCTURE
     1 PCS         1 TEMP              0 ****  ****    0 ROOT
