@<TRIPOS>MOLECULE
PCT
   12    11     1     0     0
SMALL
No Charge or Current Charge


@<TRIPOS>ATOM
      1 P            0.0090     0.0490    -0.9810 p5         1 PCT       1.305500
      2 O1P          0.9720     1.1710    -0.8000 o          1 PCT      -0.920833
      3 O2P          0.4150    -0.7860    -2.1470 o          1 PCT      -0.920833
      4 O3P         -1.3760     0.5590    -1.1850 o          1 PCT      -0.920833
      5 C1P          0.0520    -1.0210     0.4720 c3         1 PCT      -0.477400
      6 C1          -0.0480    -0.1240     1.6660 c          1 PCT       0.633100
      7 O1          -1.0980     0.3020     2.1130 o          1 PCT      -0.746100
      8 N1           1.1050     0.1160     2.3130 nt         1 PCT      -0.629000
      9 H1P1         1.0110    -1.5490     0.4360 hc         1 PCT       0.034700
     10 H1P2        -0.7990    -1.7070     0.4110 hc         1 PCT       0.034700
     11 HN11         1.0980     0.6920     3.1410 hn         1 PCT       0.303500
     12 HN12         1.9690    -0.2540     1.9460 hn         1 PCT       0.303500
@<TRIPOS>BOND
     1     1     2 1   
     2     1     3 1   
     3     1     4 1   
     4     1     5 1   
     5     5     6 1   
     6     5     9 1   
     7     5    10 1   
     8     6     7 2   
     9     6     8 1   
    10     8    11 1   
    11     8    12 1   
@<TRIPOS>SUBSTRUCTURE
     1 PCT         1 TEMP              0 ****  ****    0 ROOT
