@<TRIPOS>MOLECULE
PCT
   12    11     1     0     0
SMALL
abcg2


@<TRIPOS>ATOM
      1 P            0.2600     0.0780    -0.9420 p5         1 PCT       1.305500
      2 O1P          1.6380     0.6890    -0.5970 o          1 PCT      -0.920833
      3 O2P          0.2790    -0.8070    -2.1870 o          1 PCT      -0.920833
      4 O3P         -0.8880     1.0840    -0.8820 o          1 PCT      -0.920833
      5 C1P         -0.0460    -1.1070     0.4890 c3         1 PCT      -0.477400
      6 C1          -0.1100    -0.4150     1.8210 c          1 PCT       0.633100
      7 O1          -1.0380    -0.5560     2.6150 o          1 PCT      -0.746100
      8 N1           0.9610     0.3640     2.0790 nt         1 PCT      -0.629000
      9 H1P1         0.7790    -1.8270     0.5060 hc         1 PCT       0.034700
     10 H1P2        -0.9660    -1.6750     0.3400 hc         1 PCT       0.034700
     11 HN11         0.9350     0.9710     2.8830 hn         1 PCT       0.303500
     12 HN12         1.5060     0.6490     1.2590 hn         1 PCT       0.303500
@<TRIPOS>BOND
     1     1     2 1   
     2     1     3 1   
     3     1     4 1   
     4     1     5 1   
     5     5     6 1   
     6     5     9 1   
     7     5    10 1   
     8     6     7 2   
     9     6     8 1   
    10     8    11 1   
    11     8    12 1   
@<TRIPOS>SUBSTRUCTURE
     1 PCT         1 TEMP              0 ****  ****    0 ROOT
