@<TRIPOS>MOLECULE
PCV
   27    27     1     0     0
SMALL
abcg2


@<TRIPOS>ATOM
      1 N1          -0.5990     1.0060    -0.6050 nj         1 PCV      -0.364800
      2 C8          -0.7600     1.7320     0.5130 c          1 PCV       0.574000
      3 O1          -0.4310     1.5300     1.6710 o          1 PCV      -0.578000
      4 C9          -1.4750     2.8500    -0.2230 cy         1 PCV      -0.200400
      5 C7          -1.3570     1.9240    -1.4500 cy         1 PCV       0.087000
      6 C1          -0.3500    -0.3960    -0.8110 c3         1 PCV      -0.071300
      7 C2           0.8660    -0.9180    -0.0300 c3         1 PCV       0.189300
      8 C4           2.1270    -0.1030    -0.3040 c3         1 PCV      -0.109400
      9 C5           3.3790    -0.7300     0.2910 c3         1 PCV       0.145800
     10 N2           4.5560     0.0720    -0.0260 n8         1 PCV      -1.002200
     11 O3           0.5990    -1.0560     1.3480 oh         1 PCV      -0.675000
     12 C3          -1.6080    -1.2540    -0.4920 c          1 PCV       0.719000
     13 O2          -2.5750    -0.6770     0.0290 o          1 PCV      -0.716500
     14 O4          -1.5130    -2.4570    -0.8030 o          1 PCV      -0.716500
     15 HC91        -0.9310     3.7920    -0.2780 hc         1 PCV       0.063200
     16 HC92        -2.4900     3.0330     0.1260 hc         1 PCV       0.063200
     17 HC71        -0.7900     2.3120    -2.2970 h1         1 PCV       0.049200
     18 HC72        -2.3050     1.5110    -1.7930 h1         1 PCV       0.049200
     19 HC1         -0.1200    -0.5160    -1.8750 h1         1 PCV       0.044700
     20 H22          1.0320    -1.9330    -0.4020 h1         1 PCV       0.079700
     21 HC41         2.0130     0.9170     0.0800 hc         1 PCV       0.040700
     22 HC42         2.2610    -0.0100    -1.3860 hc         1 PCV       0.040700
     23 HC51         3.5220    -1.7240    -0.1430 h1         1 PCV       0.032700
     24 HC52         3.2340    -0.8800     1.3680 h1         1 PCV       0.032700
     25 HN21         4.4990     0.9520     0.4730 hn         1 PCV       0.377500
     26 HN22         5.3800    -0.3880     0.3410 hn         1 PCV       0.377500
     27 HO3          0.3150    -0.1890     1.6850 ho         1 PCV       0.468000
@<TRIPOS>BOND
     1     1     2 1   
     2     1     5 1   
     3     1     6 1   
     4     2     3 2   
     5     2     4 1   
     6     4     5 1   
     7     4    15 1   
     8     4    16 1   
     9     5    17 1   
    10     5    18 1   
    11     6     7 1   
    12     6    12 1   
    13     6    19 1   
    14     7     8 1   
    15     7    11 1   
    16     7    20 1   
    17     8     9 1   
    18     8    21 1   
    19     8    22 1   
    20     9    10 1   
    21     9    23 1   
    22     9    24 1   
    23    10    25 1   
    24    10    26 1   
    25    11    27 1   
    26    12    13 1   
    27    12    14 1   
@<TRIPOS>SUBSTRUCTURE
     1 PCV         1 TEMP              0 ****  ****    0 ROOT
