@<TRIPOS>MOLECULE
PCV
   27    27     1     0     0
SMALL
No Charge or Current Charge


@<TRIPOS>ATOM
      1 N1          -0.7720     0.9120    -0.4900 nj         1 PCV      -0.364800
      2 C8          -1.1710     1.6140     0.6520 c          1 PCV       0.574000
      3 O1          -1.2480     1.2910     1.8280 o          1 PCV      -0.578000
      4 C9          -1.3950     2.9100    -0.1640 cy         1 PCV      -0.200400
      5 C7          -0.9300     2.0690    -1.3940 cy         1 PCV       0.087000
      6 C1          -0.4720    -0.5270    -0.6850 c3         1 PCV      -0.071300
      7 C2           0.8320    -0.9390     0.0520 c3         1 PCV       0.189300
      8 C4           2.0730    -0.1350    -0.4130 c3         1 PCV      -0.109400
      9 C5           3.3970    -0.6540     0.1860 c3         1 PCV       0.145800
     10 N2           4.5540     0.1010    -0.3310 n8         1 PCV      -1.002200
     11 O3           0.6590    -0.7770     1.4680 oh         1 PCV      -0.675000
     12 C3          -1.6340    -1.5210    -0.3880 c          1 PCV       0.719000
     13 O2          -2.6580    -1.1070     0.1410 o          1 PCV      -0.716500
     14 O4          -1.5090    -2.6730    -0.7790 o          1 PCV      -0.716500
     15 HC91        -0.7290     3.7160     0.1590 hc         1 PCV       0.063200
     16 HC92        -2.4430     3.2240    -0.1530 hc         1 PCV       0.063200
     17 HC71         0.0190     2.3910    -1.8390 h1         1 PCV       0.049200
     18 HC72        -1.6980     1.9090    -2.1590 h1         1 PCV       0.049200
     19 HC1         -0.2710    -0.6570    -1.7560 h1         1 PCV       0.044700
     20 H22          1.0240    -1.9970    -0.1790 h1         1 PCV       0.079700
     21 HC41         1.9480     0.9230    -0.1520 hc         1 PCV       0.040700
     22 HC42         2.1350    -0.1890    -1.5070 hc         1 PCV       0.040700
     23 HC51         3.5270    -1.7160    -0.0690 h1         1 PCV       0.032700
     24 HC52         3.3760    -0.5600     1.2810 h1         1 PCV       0.032700
     25 HN21         4.4720     1.0800    -0.0310 hn         1 PCV       0.377500
     26 HN22         5.4050    -0.2280     0.1400 hn         1 PCV       0.377500
     27 HO3         -0.0110    -0.0600     1.5900 ho         1 PCV       0.468000
@<TRIPOS>BOND
     1     1     2 1   
     2     1     5 1   
     3     1     6 1   
     4     2     3 2   
     5     2     4 1   
     6     4     5 1   
     7     4    15 1   
     8     4    16 1   
     9     5    17 1   
    10     5    18 1   
    11     6     7 1   
    12     6    12 1   
    13     6    19 1   
    14     7     8 1   
    15     7    11 1   
    16     7    20 1   
    17     8     9 1   
    18     8    21 1   
    19     8    22 1   
    20     9    10 1   
    21     9    23 1   
    22     9    24 1   
    23    10    25 1   
    24    10    26 1   
    25    11    27 1   
    26    12    13 1   
    27    12    14 1   
@<TRIPOS>SUBSTRUCTURE
     1 PCV         1 TEMP              0 ****  ****    0 ROOT
