@<TRIPOS>MOLECULE
PCW
  138   137     1     0     0
SMALL
bcc


@<TRIPOS>ATOM
      1 C1          -0.1020    -5.9230     1.6310 c3         1 PCW       0.192400
      2 C2          -0.6170    -5.0440     2.7640 c3         1 PCW       0.122100
      3 C3           0.4400    -4.3820     3.6160 c3         1 PCW       0.149400
      4 C4          -0.6050    -2.3350    -1.6690 c3         1 PCW       0.187400
      5 C5           0.2830    -1.1270    -1.8600 c3         1 PCW       0.119800
      6 C6           1.7470    -2.3590    -3.4370 c3         1 PCW       0.100433
      7 C7           2.2600    -0.0820    -2.7790 c3         1 PCW       0.100433
      8 C8           2.5530    -1.8840    -1.1970 c3         1 PCW       0.100433
      9 C11          2.1730    -2.8030     3.4320 c          1 PCW       0.640100
     10 C12          2.9100    -1.9140     2.4680 c3         1 PCW      -0.137400
     11 C13          3.8750    -0.9500     3.1360 c3         1 PCW      -0.073400
     12 C14          4.6180    -0.0870     2.1240 c3         1 PCW      -0.071400
     13 C15          5.5540     0.9110     2.7920 c3         1 PCW      -0.078400
     14 C16          6.3260     1.7850     1.8110 c3         1 PCW      -0.073400
     15 C17          7.2400     2.7810     2.5130 c3         1 PCW      -0.074400
     16 C18          8.0140     3.6810     1.5470 c3         1 PCW      -0.040200
     17 C19          8.8420     4.6920     2.2780 c2         1 PCW      -0.171200
     18 C20         10.1690     4.8140     2.2810 c2         1 PCW      -0.160200
     19 C21         11.1660     4.0070     1.5100 c3         1 PCW      -0.044200
     20 C22         12.0410     4.8840     0.6120 c3         1 PCW      -0.073400
     21 C23         13.0700     4.0860    -0.1780 c3         1 PCW      -0.075400
     22 C24         13.9770     4.9620    -1.0350 c3         1 PCW      -0.074400
     23 C25         14.9840     4.1630    -1.8540 c3         1 PCW      -0.074400
     24 C26         15.9110     5.0370    -2.6890 c3         1 PCW      -0.075400
     25 C27         16.8980     4.2360    -3.5300 c3         1 PCW      -0.074400
     26 C28         17.8270     5.1170    -4.3540 c3         1 PCW      -0.088100
     27 C32         -3.4420    -3.1390     1.3610 c3         1 PCW      -0.114400
     28 C33         -4.7970    -3.4940     0.7740 c3         1 PCW      -0.072400
     29 C34         -5.4840    -2.2890     0.1450 c3         1 PCW      -0.070400
     30 C35         -6.8830    -2.6110    -0.3640 c3         1 PCW      -0.076400
     31 C36         -7.5960    -1.4140    -0.9790 c3         1 PCW      -0.073400
     32 C37         -9.0290    -1.7280    -1.3930 c3         1 PCW      -0.074400
     33 C38         -9.7440    -0.5380    -2.0340 c3         1 PCW      -0.043200
     34 C39        -11.1550    -0.8710    -2.4050 c2         1 PCW      -0.164200
     35 C40        -12.2730    -0.3320    -1.9170 c2         1 PCW      -0.167200
     36 C41        -12.3910     0.7780    -0.9200 c3         1 PCW      -0.043200
     37 C42        -13.1000     1.9990    -1.5110 c3         1 PCW      -0.073400
     38 C43        -13.2510     3.1430    -0.5170 c3         1 PCW      -0.075400
     39 C44        -13.9650     4.3520    -1.1090 c3         1 PCW      -0.074400
     40 C45        -14.0990     5.5150    -0.1350 c3         1 PCW      -0.074400
     41 C46        -14.8170     6.7180    -0.7350 c3         1 PCW      -0.075400
     42 C47        -14.9410     7.8920     0.2280 c3         1 PCW      -0.074400
     43 C48        -15.6460     9.0910    -0.3910 c3         1 PCW      -0.088100
     44 N            1.7010    -1.3830    -2.3130 n4         1 PCW      -0.597800
     45 O2          -1.4670    -4.0190     2.2570 os         1 PCW      -0.426900
     46 O3           1.2250    -3.5000     2.8200 os         1 PCW      -0.382900
     47 O11          2.4050    -2.8920     4.6130 o          1 PCW      -0.548000
     48 O31         -3.2560    -5.3600     2.2730 o          1 PCW      -0.535000
     49 O1P         -1.8140    -5.1320    -0.6160 o          1 PCW      -0.813000
     50 O2P          0.4090    -5.2140    -1.9610 o          1 PCW      -0.813000
     51 O3P          0.4830    -5.1970     0.5730 os         1 PCW      -0.563200
     52 O4P         -0.1700    -3.1400    -0.6010 os         1 PCW      -0.559200
     53 P           -0.3670    -4.7730    -0.7540 p5         1 PCW       1.386800
     54 H11          0.6610    -6.5890     2.0420 h1         1 PCW       0.050700
     55 H12         -0.9190    -6.5530     1.2770 h1         1 PCW       0.050700
     56 H2          -1.1660    -5.7010     3.4470 h1         1 PCW       0.067700
     57 H31          1.0660    -5.1600     4.0610 h1         1 PCW       0.052200
     58 H32         -0.0380    -3.8340     4.4320 h1         1 PCW       0.052200
     59 H41         -0.6890    -2.8880    -2.6090 h1         1 PCW       0.054700
     60 H42         -1.6010    -1.9270    -1.4640 h1         1 PCW       0.054700
     61 H51         -0.1760    -0.5030    -2.6280 hx         1 PCW       0.078700
     62 H52          0.3480    -0.5380    -0.9440 hx         1 PCW       0.078700
     63 H61          1.0750    -2.0290    -4.2260 hx         1 PCW       0.095478
     64 H62          2.7640    -2.3930    -3.8210 hx         1 PCW       0.095478
     65 H63          1.4580    -3.3450    -3.0840 hx         1 PCW       0.095478
     66 H71          2.1520     0.6560    -1.9890 hx         1 PCW       0.095478
     67 H72          3.3120    -0.2110    -3.0180 hx         1 PCW       0.095478
     68 H73          1.7180     0.2440    -3.6620 hx         1 PCW       0.095478
     69 H81          2.1630    -2.8240    -0.8270 hx         1 PCW       0.095478
     70 H82          3.5650    -2.0190    -1.5690 hx         1 PCW       0.095478
     71 H83          2.5550    -1.1450    -0.4000 hx         1 PCW       0.095478
     72 H121         2.1710    -1.3720     1.8720 hc         1 PCW       0.061200
     73 H122         3.4420    -2.5630     1.7640 hc         1 PCW       0.061200
     74 H131         4.6000    -1.5070     3.7340 hc         1 PCW       0.060200
     75 H132         3.3310    -0.3050     3.8310 hc         1 PCW       0.060200
     76 H141         3.8970     0.4530     1.4990 hc         1 PCW       0.025200
     77 H142         5.1880    -0.7300     1.4440 hc         1 PCW       0.025200
     78 H151         6.2650     0.3680     3.4260 hc         1 PCW       0.045700
     79 H152         4.9760     1.5520     3.4670 hc         1 PCW       0.045700
     80 H161         5.6200     2.3260     1.1710 hc         1 PCW       0.031700
     81 H162         6.9180     1.1490     1.1440 hc         1 PCW       0.031700
     82 H171         7.9520     2.2400     3.1450 hc         1 PCW       0.043200
     83 H172         6.6450     3.4050     3.1880 hc         1 PCW       0.043200
     84 H181         7.2970     4.2020     0.9030 hc         1 PCW       0.041700
     85 H182         8.6300     3.0640     0.8890 hc         1 PCW       0.041700
     86 H19          8.2740     5.3830     2.8970 ha         1 PCW       0.116000
     87 H20         10.5980     5.6030     2.8950 ha         1 PCW       0.117000
     88 H211        10.6760     3.2400     0.9060 hc         1 PCW       0.044700
     89 H212        11.8160     3.4730     2.2130 hc         1 PCW       0.044700
     90 H221        12.5520     5.6320     1.2290 hc         1 PCW       0.039700
     91 H222        11.4020     5.4420    -0.0790 hc         1 PCW       0.039700
     92 H231        12.5530     3.3620    -0.8180 hc         1 PCW       0.037200
     93 H232        13.6840     3.4980     0.5130 hc         1 PCW       0.037200
     94 H241        14.5110     5.6680    -0.3900 hc         1 PCW       0.037700
     95 H242        13.3640     5.5700    -1.7090 hc         1 PCW       0.037700
     96 H251        14.4470     3.4710    -2.5130 hc         1 PCW       0.036700
     97 H252        15.5830     3.5380    -1.1820 hc         1 PCW       0.036700
     98 H261        16.4640     5.7140    -2.0270 hc         1 PCW       0.037200
     99 H262        15.3130     5.6770    -3.3470 hc         1 PCW       0.037200
    100 H271        16.3450     3.5640    -4.1940 hc         1 PCW       0.036200
    101 H272        17.4920     3.5920    -2.8740 hc         1 PCW       0.036200
    102 H281        18.5100     4.5220    -4.9620 hc         1 PCW       0.031700
    103 H282        17.2630     5.7640    -5.0290 hc         1 PCW       0.031700
    104 H283        18.4320     5.7600    -3.7130 hc         1 PCW       0.031700
    105 H321        -3.5560    -2.3690     2.1330 hc         1 PCW       0.057200
    106 H322        -2.7890    -2.7080     0.6010 hc         1 PCW       0.057200
    107 H331        -4.6700    -4.2760     0.0210 hc         1 PCW       0.066200
    108 H332        -5.4410    -3.9110     1.5530 hc         1 PCW       0.066200
    109 H341        -5.5470    -1.4770     0.8790 hc         1 PCW       0.027200
    110 H342        -4.8710    -1.9060    -0.6790 hc         1 PCW       0.027200
    111 H351        -6.8250    -3.4180    -1.1020 hc         1 PCW       0.043200
    112 H352        -7.4830    -3.0020     0.4670 hc         1 PCW       0.043200
    113 H361        -7.6040    -0.5860    -0.2620 hc         1 PCW       0.032200
    114 H362        -7.0310    -1.0610    -1.8490 hc         1 PCW       0.032200
    115 H371        -9.0320    -2.5720    -2.0910 hc         1 PCW       0.041700
    116 H372        -9.5940    -2.0560    -0.5140 hc         1 PCW       0.041700
    117 H381        -9.7080     0.3180    -1.3560 hc         1 PCW       0.042200
    118 H382        -9.1930    -0.2430    -2.9340 hc         1 PCW       0.042200
    119 H39        -11.2610    -1.6640    -3.1420 ha         1 PCW       0.115000
    120 H40        -13.2190    -0.7140    -2.2930 ha         1 PCW       0.115000
    121 H411       -12.9630     0.4280    -0.0530 hc         1 PCW       0.044700
    122 H412       -11.4110     1.0750    -0.5420 hc         1 PCW       0.044700
    123 H421       -12.5410     2.3470    -2.3860 hc         1 PCW       0.038700
    124 H422       -14.0870     1.7010    -1.8780 hc         1 PCW       0.038700
    125 H431       -13.8000     2.7930     0.3650 hc         1 PCW       0.037200
    126 H432       -12.2610     3.4460    -0.1590 hc         1 PCW       0.037200
    127 H441       -13.4260     4.6880    -2.0020 hc         1 PCW       0.037200
    128 H442       -14.9600     4.0500    -1.4530 hc         1 PCW       0.037200
    129 H451       -14.6360     5.1820     0.7610 hc         1 PCW       0.037200
    130 H452       -13.1030     5.8200     0.2050 hc         1 PCW       0.037200
    131 H461       -14.2860     7.0430    -1.6370 hc         1 PCW       0.037200
    132 H462       -15.8160     6.4150    -1.0660 hc         1 PCW       0.037200
    133 H471       -15.4800     7.5710     1.1250 hc         1 PCW       0.036200
    134 H472       -13.9430     8.1890     0.5670 hc         1 PCW       0.036200
    135 H481       -15.1140     9.4420    -1.2780 hc         1 PCW       0.031033
    136 H482       -16.6620     8.8370    -0.6980 hc         1 PCW       0.031033
    137 H483       -15.7110     9.9260     0.3080 hc         1 PCW       0.031033
    138 C31         -2.7390    -4.3100     1.9870 c          1 PCW       0.674100
@<TRIPOS>BOND
     1     1     2 1   
     2     1    51 1   
     3     1    54 1   
     4     1    55 1   
     5     2     3 1   
     6     2    45 1   
     7     2    56 1   
     8     3    46 1   
     9     3    57 1   
    10     3    58 1   
    11     4     5 1   
    12     4    52 1   
    13     4    59 1   
    14     4    60 1   
    15     5    44 1   
    16     5    61 1   
    17     5    62 1   
    18     6    44 1   
    19     6    63 1   
    20     6    64 1   
    21     6    65 1   
    22     7    44 1   
    23     7    66 1   
    24     7    67 1   
    25     7    68 1   
    26     8    44 1   
    27     8    69 1   
    28     8    70 1   
    29     8    71 1   
    30     9    10 1   
    31     9    46 1   
    32     9    47 2   
    33    10    11 1   
    34    10    72 1   
    35    10    73 1   
    36    11    12 1   
    37    11    74 1   
    38    11    75 1   
    39    12    13 1   
    40    12    76 1   
    41    12    77 1   
    42    13    14 1   
    43    13    78 1   
    44    13    79 1   
    45    14    15 1   
    46    14    80 1   
    47    14    81 1   
    48    15    16 1   
    49    15    82 1   
    50    15    83 1   
    51    16    17 1   
    52    16    84 1   
    53    16    85 1   
    54    17    18 2   
    55    17    86 1   
    56    18    19 1   
    57    18    87 1   
    58    19    20 1   
    59    19    88 1   
    60    19    89 1   
    61    20    21 1   
    62    20    90 1   
    63    20    91 1   
    64    21    22 1   
    65    21    92 1   
    66    21    93 1   
    67    22    23 1   
    68    22    94 1   
    69    22    95 1   
    70    23    24 1   
    71    23    96 1   
    72    23    97 1   
    73    24    25 1   
    74    24    98 1   
    75    24    99 1   
    76    25    26 1   
    77    25   100 1   
    78    25   101 1   
    79    26   102 1   
    80    26   103 1   
    81    26   104 1   
    82    27    28 1   
    83    27   105 1   
    84    27   106 1   
    85    27   138 1   
    86    28    29 1   
    87    28   107 1   
    88    28   108 1   
    89    29    30 1   
    90    29   109 1   
    91    29   110 1   
    92    30    31 1   
    93    30   111 1   
    94    30   112 1   
    95    31    32 1   
    96    31   113 1   
    97    31   114 1   
    98    32    33 1   
    99    32   115 1   
   100    32   116 1   
   101    33    34 1   
   102    33   117 1   
   103    33   118 1   
   104    34    35 2   
   105    34   119 1   
   106    35    36 1   
   107    35   120 1   
   108    36    37 1   
   109    36   121 1   
   110    36   122 1   
   111    37    38 1   
   112    37   123 1   
   113    37   124 1   
   114    38    39 1   
   115    38   125 1   
   116    38   126 1   
   117    39    40 1   
   118    39   127 1   
   119    39   128 1   
   120    40    41 1   
   121    40   129 1   
   122    40   130 1   
   123    41    42 1   
   124    41   131 1   
   125    41   132 1   
   126    42    43 1   
   127    42   133 1   
   128    42   134 1   
   129    43   135 1   
   130    43   136 1   
   131    43   137 1   
   132    45   138 1   
   133    48   138 2   
   134    49    53 1   
   135    50    53 1   
   136    51    53 1   
   137    52    53 1   
@<TRIPOS>SUBSTRUCTURE
     1 PCW         1 TEMP              0 ****  ****    0 ROOT
