@<TRIPOS>MOLECULE
PCW
  138   137     1     0     0
SMALL
No Charge or Current Charge


@<TRIPOS>ATOM
      1 C1          -0.5380    -6.5170     2.2260 c3         1 PCW       0.215600
      2 C2          -0.5320    -5.5910     3.4910 c3         1 PCW       0.145300
      3 C3           0.8460    -5.3680     4.1790 c3         1 PCW       0.172600
      4 C4           0.3000    -2.7820     1.1060 c3         1 PCW       0.210600
      5 C5           0.7410    -1.4400     0.4750 c3         1 PCW       0.091600
      6 C6          -0.9680    -1.4590    -1.3930 c3         1 PCW       0.072233
      7 C7           0.7950     0.3110    -1.3060 c3         1 PCW       0.072233
      8 C8           1.4250    -2.0270    -1.8890 c3         1 PCW       0.072233
      9 C11          3.0290    -4.4460     3.7100 c          1 PCW       0.591100
     10 C12          3.8800    -3.8440     2.5880 c3         1 PCW      -0.137400
     11 C13          3.8030    -2.2980     2.5730 c3         1 PCW      -0.073400
     12 C14          4.3570    -1.6860     1.2670 c3         1 PCW      -0.071400
     13 C15          4.2170    -0.1500     1.2020 c3         1 PCW      -0.078400
     14 C16          4.6900     0.4330    -0.1470 c3         1 PCW      -0.073400
     15 C17          4.5130     1.9640    -0.2430 c3         1 PCW      -0.074400
     16 C18          5.0500     2.5480    -1.5660 c3         1 PCW      -0.040200
     17 C19          4.8720     4.0520    -1.6470 c2         1 PCW      -0.221200
     18 C20          5.7480     4.9890    -1.2410 c2         1 PCW      -0.210200
     19 C21          7.0880     4.7510    -0.5690 c3         1 PCW      -0.044200
     20 C22          8.2690     4.8610    -1.5580 c3         1 PCW      -0.073400
     21 C23          9.6420     4.6410    -0.8830 c3         1 PCW      -0.075400
     22 C24         10.8290     4.7440    -1.8670 c3         1 PCW      -0.074400
     23 C25         12.1980     4.5390    -1.1810 c3         1 PCW      -0.074400
     24 C26         13.3900     4.6420    -2.1590 c3         1 PCW      -0.075400
     25 C27         14.7570     4.4440    -1.4650 c3         1 PCW      -0.074400
     26 C28         15.9490     4.5470    -2.4360 c3         1 PCW      -0.088100
     27 C32         -3.0090    -2.8090     2.8750 c3         1 PCW      -0.114400
     28 C33         -3.6500    -2.6620     1.4740 c3         1 PCW      -0.072400
     29 C34         -3.9110    -1.1930     1.0790 c3         1 PCW      -0.070400
     30 C35         -4.5690    -1.0510    -0.3110 c3         1 PCW      -0.076400
     31 C36         -4.8000     0.4190    -0.7210 c3         1 PCW      -0.073400
     32 C37         -5.4690     0.5620    -2.1060 c3         1 PCW      -0.074400
     33 C38         -5.7480     2.0280    -2.4930 c3         1 PCW      -0.043200
     34 C39         -6.4380     2.1450    -3.8400 c2         1 PCW      -0.214200
     35 C40         -7.7640     2.2000    -4.0600 c2         1 PCW      -0.217200
     36 C41         -8.8620     2.1110    -3.0170 c3         1 PCW      -0.043200
     37 C42         -9.3680     3.5010    -2.5810 c3         1 PCW      -0.073400
     38 C43        -10.4780     3.4310    -1.5090 c3         1 PCW      -0.075400
     39 C44        -10.9770     4.8230    -1.0620 c3         1 PCW      -0.074400
     40 C45        -12.0870     4.7480     0.0100 c3         1 PCW      -0.074400
     41 C46        -12.5840     6.1390     0.4640 c3         1 PCW      -0.075400
     42 C47        -13.6940     6.0630     1.5350 c3         1 PCW      -0.074400
     43 C48        -14.1880     7.4500     1.9900 c3         1 PCW      -0.088100
     44 N            0.4940    -1.1660    -1.0240 n4         1 PCW      -0.485000
     45 O2          -1.1550    -4.3110     3.2190 os         1 PCW      -0.450100
     46 O3           1.7650    -4.7300     3.2760 os         1 PCW      -0.406100
     47 O11          3.4340    -4.6360     4.8490 o          1 PCW      -0.499000
     48 O31         -3.2800    -5.1860     3.3190 o          1 PCW      -0.486000
     49 O1P         -1.2780    -4.9400    -0.2440 o          1 PCW      -0.813000
     50 O2P          0.8110    -5.7490    -1.2530 o          1 PCW      -0.813000
     51 O3P          0.4490    -6.1730     1.2280 os         1 PCW      -0.586400
     52 O4P          0.9650    -3.8640     0.4460 os         1 PCW      -0.582400
     53 P            0.1740    -5.1890    -0.0250 p5         1 PCW       1.386800
     54 H11         -0.3460    -7.5410     2.5720 h1         1 PCW       0.050700
     55 H12         -1.5450    -6.5290     1.7910 h1         1 PCW       0.050700
     56 H2          -1.1300    -6.1160     4.2490 h1         1 PCW       0.067700
     57 H31          1.2420    -6.3400     4.5010 h1         1 PCW       0.052200
     58 H32          0.6980    -4.7520     5.0760 h1         1 PCW       0.052200
     59 H41         -0.7880    -2.8610     1.0280 h1         1 PCW       0.054700
     60 H42          0.5600    -2.7630     2.1700 h1         1 PCW       0.054700
     61 H51          0.2370    -0.6440     1.0260 hx         1 PCW       0.078700
     62 H52          1.8120    -1.3270     0.6420 hx         1 PCW       0.078700
     63 H61         -1.6260    -0.8360    -0.7840 hx         1 PCW       0.095478
     64 H62         -1.1240    -1.2340    -2.4500 hx         1 PCW       0.095478
     65 H63         -1.1830    -2.5140    -1.2090 hx         1 PCW       0.095478
     66 H71          1.8360     0.5220    -1.0490 hx         1 PCW       0.095478
     67 H72          0.6300     0.5170    -2.3660 hx         1 PCW       0.095478
     68 H73          0.1330     0.9370    -0.7030 hx         1 PCW       0.095478
     69 H81          1.1900    -3.0820    -1.7380 hx         1 PCW       0.095478
     70 H82          1.2820    -1.7690    -2.9400 hx         1 PCW       0.095478
     71 H83          2.4610    -1.8380    -1.6000 hx         1 PCW       0.095478
     72 H121         3.4810    -4.1970     1.6290 hc         1 PCW       0.061200
     73 H122         4.9240    -4.1530     2.7070 hc         1 PCW       0.061200
     74 H131         4.3540    -1.8970     3.4340 hc         1 PCW       0.060200
     75 H132         2.7580    -1.9870     2.6960 hc         1 PCW       0.060200
     76 H141         3.8300    -2.1290     0.4120 hc         1 PCW       0.025200
     77 H142         5.4150    -1.9580     1.1620 hc         1 PCW       0.025200
     78 H151         4.8000     0.3000     2.0150 hc         1 PCW       0.045700
     79 H152         3.1710     0.1320     1.3670 hc         1 PCW       0.045700
     80 H161         4.1320    -0.0440    -0.9630 hc         1 PCW       0.031700
     81 H162         5.7490     0.1810    -0.2930 hc         1 PCW       0.031700
     82 H171         5.0340     2.4410     0.5970 hc         1 PCW       0.043200
     83 H172         3.4490     2.2130    -0.1430 hc         1 PCW       0.043200
     84 H181         4.5380     2.0690    -2.4100 hc         1 PCW       0.041700
     85 H182         6.1100     2.2850    -1.6680 hc         1 PCW       0.041700
     86 H19          3.9300     4.3590    -2.1060 ha         1 PCW       0.166000
     87 H20          5.5020     6.0460    -1.3680 ha         1 PCW       0.167000
     88 H211         7.1160     3.7630    -0.0940 hc         1 PCW       0.044700
     89 H212         7.2250     5.4790     0.2410 hc         1 PCW       0.044700
     90 H221         8.2510     5.8510    -2.0300 hc         1 PCW       0.039700
     91 H222         8.1350     4.1210    -2.3570 hc         1 PCW       0.039700
     92 H231         9.6550     3.6520    -0.4070 hc         1 PCW       0.037200
     93 H232         9.7710     5.3830    -0.0840 hc         1 PCW       0.037200
     94 H241        10.8110     5.7300    -2.3510 hc         1 PCW       0.037700
     95 H242        10.7060     3.9950    -2.6600 hc         1 PCW       0.037700
     96 H251        12.2140     3.5540    -0.6960 hc         1 PCW       0.036700
     97 H252        12.3180     5.2880    -0.3880 hc         1 PCW       0.036700
     98 H261        13.3730     5.6250    -2.6470 hc         1 PCW       0.037200
     99 H262        13.2750     3.8880    -2.9490 hc         1 PCW       0.037200
    100 H271        14.7790     3.4610    -0.9770 hc         1 PCW       0.036200
    101 H272        14.8750     5.1960    -0.6740 hc         1 PCW       0.036200
    102 H281        16.8940     4.4010    -1.8970 hc         1 PCW       0.031700
    103 H282        15.8800     3.7820    -3.2200 hc         1 PCW       0.031700
    104 H283        15.9760     5.5330    -2.9150 hc         1 PCW       0.031700
    105 H321        -3.7590    -2.5450     3.6300 hc         1 PCW       0.057200
    106 H322        -2.1590    -2.1200     2.9540 hc         1 PCW       0.057200
    107 H331        -3.0000    -3.1210     0.7200 hc         1 PCW       0.066200
    108 H332        -4.5940    -3.2220     1.4510 hc         1 PCW       0.066200
    109 H341        -4.5570    -0.7270     1.8330 hc         1 PCW       0.027200
    110 H342        -2.9610    -0.6440     1.0870 hc         1 PCW       0.027200
    111 H351        -3.9390    -1.5410    -1.0640 hc         1 PCW       0.043200
    112 H352        -5.5300    -1.5790    -0.3080 hc         1 PCW       0.043200
    113 H361        -5.4290     0.9060     0.0340 hc         1 PCW       0.032200
    114 H362        -3.8390     0.9480    -0.7290 hc         1 PCW       0.032200
    115 H371        -4.8270     0.1030    -2.8680 hc         1 PCW       0.041700
    116 H372        -6.4150     0.0060    -2.1080 hc         1 PCW       0.041700
    117 H381        -6.3590     2.4930    -1.7100 hc         1 PCW       0.042200
    118 H382        -4.8040     2.5860    -2.5110 hc         1 PCW       0.042200
    119 H39         -5.7480     2.2070    -4.6840 ha         1 PCW       0.165000
    120 H40         -8.1360     2.2970    -5.0830 ha         1 PCW       0.165000
    121 H411        -9.7010     1.5270    -3.4150 hc         1 PCW       0.044700
    122 H412        -8.5100     1.5670    -2.1310 hc         1 PCW       0.044700
    123 H421        -8.5230     4.0820    -2.1890 hc         1 PCW       0.038700
    124 H422        -9.7460     4.0380    -3.4600 hc         1 PCW       0.038700
    125 H431       -11.3240     2.8550    -1.9040 hc         1 PCW       0.037200
    126 H432       -10.1000     2.8870    -0.6340 hc         1 PCW       0.037200
    127 H441       -10.1310     5.3990    -0.6660 hc         1 PCW       0.037200
    128 H442       -11.3560     5.3680    -1.9360 hc         1 PCW       0.037200
    129 H451       -12.9350     4.1760    -0.3890 hc         1 PCW       0.037200
    130 H452       -11.7100     4.1980     0.8820 hc         1 PCW       0.037200
    131 H461       -11.7360     6.7110     0.8630 hc         1 PCW       0.037200
    132 H462       -12.9600     6.6900    -0.4080 hc         1 PCW       0.037200
    133 H471       -14.5450     5.4940     1.1380 hc         1 PCW       0.036200
    134 H472       -13.3210     5.5130     2.4090 hc         1 PCW       0.036200
    135 H481       -13.3660     8.0310     2.4250 hc         1 PCW       0.031033
    136 H482       -14.6010     8.0120     1.1430 hc         1 PCW       0.031033
    137 H483       -14.9740     7.3450     2.7480 hc         1 PCW       0.031033
    138 C31         -2.5250    -4.2390     3.1450 c          1 PCW       0.625100
@<TRIPOS>BOND
     1     1     2 1   
     2     1    51 1   
     3     1    54 1   
     4     1    55 1   
     5     2     3 1   
     6     2    45 1   
     7     2    56 1   
     8     3    46 1   
     9     3    57 1   
    10     3    58 1   
    11     4     5 1   
    12     4    52 1   
    13     4    59 1   
    14     4    60 1   
    15     5    44 1   
    16     5    61 1   
    17     5    62 1   
    18     6    44 1   
    19     6    63 1   
    20     6    64 1   
    21     6    65 1   
    22     7    44 1   
    23     7    66 1   
    24     7    67 1   
    25     7    68 1   
    26     8    44 1   
    27     8    69 1   
    28     8    70 1   
    29     8    71 1   
    30     9    10 1   
    31     9    46 1   
    32     9    47 2   
    33    10    11 1   
    34    10    72 1   
    35    10    73 1   
    36    11    12 1   
    37    11    74 1   
    38    11    75 1   
    39    12    13 1   
    40    12    76 1   
    41    12    77 1   
    42    13    14 1   
    43    13    78 1   
    44    13    79 1   
    45    14    15 1   
    46    14    80 1   
    47    14    81 1   
    48    15    16 1   
    49    15    82 1   
    50    15    83 1   
    51    16    17 1   
    52    16    84 1   
    53    16    85 1   
    54    17    18 2   
    55    17    86 1   
    56    18    19 1   
    57    18    87 1   
    58    19    20 1   
    59    19    88 1   
    60    19    89 1   
    61    20    21 1   
    62    20    90 1   
    63    20    91 1   
    64    21    22 1   
    65    21    92 1   
    66    21    93 1   
    67    22    23 1   
    68    22    94 1   
    69    22    95 1   
    70    23    24 1   
    71    23    96 1   
    72    23    97 1   
    73    24    25 1   
    74    24    98 1   
    75    24    99 1   
    76    25    26 1   
    77    25   100 1   
    78    25   101 1   
    79    26   102 1   
    80    26   103 1   
    81    26   104 1   
    82    27    28 1   
    83    27   105 1   
    84    27   106 1   
    85    27   138 1   
    86    28    29 1   
    87    28   107 1   
    88    28   108 1   
    89    29    30 1   
    90    29   109 1   
    91    29   110 1   
    92    30    31 1   
    93    30   111 1   
    94    30   112 1   
    95    31    32 1   
    96    31   113 1   
    97    31   114 1   
    98    32    33 1   
    99    32   115 1   
   100    32   116 1   
   101    33    34 1   
   102    33   117 1   
   103    33   118 1   
   104    34    35 2   
   105    34   119 1   
   106    35    36 1   
   107    35   120 1   
   108    36    37 1   
   109    36   121 1   
   110    36   122 1   
   111    37    38 1   
   112    37   123 1   
   113    37   124 1   
   114    38    39 1   
   115    38   125 1   
   116    38   126 1   
   117    39    40 1   
   118    39   127 1   
   119    39   128 1   
   120    40    41 1   
   121    40   129 1   
   122    40   130 1   
   123    41    42 1   
   124    41   131 1   
   125    41   132 1   
   126    42    43 1   
   127    42   133 1   
   128    42   134 1   
   129    43   135 1   
   130    43   136 1   
   131    43   137 1   
   132    45   138 1   
   133    48   138 2   
   134    49    53 1   
   135    50    53 1   
   136    51    53 1   
   137    52    53 1   
@<TRIPOS>SUBSTRUCTURE
     1 PCW         1 TEMP              0 ****  ****    0 ROOT
