@<TRIPOS>MOLECULE
PD1
   79    81     1     0     0
SMALL
No Charge or Current Charge


@<TRIPOS>ATOM
      1 C1          10.1920     5.9740    30.1900 c3         1 PD1      -0.091100
      2 C2          11.4950     5.6080    29.4500 c3         1 PD1       0.173800
      3 C3          14.2420     4.1860    29.5600 c3         1 PD1      -0.091100
      4 C4          13.0420     3.8160    28.6640 c3         1 PD1       0.173800
      5 C5          10.5960     3.4520    28.5260 c3         1 PD1       0.173800
      6 C6          10.3310     3.9210    27.0730 c3         1 PD1      -0.111400
      7 C7           9.1780     3.1470    26.3960 c3         1 PD1      -0.094400
      8 C8           8.9090     3.6130    24.9510 c3         1 PD1       0.234800
      9 C9           7.2740     2.9790    23.0850 ca         1 PD1       0.410900
     10 C10          5.7360     2.2730    21.5640 ca         1 PD1       0.203900
     11 C11          6.2320     3.2150    20.6450 ca         1 PD1      -0.300000
     12 C12          7.3080     4.0480    21.0370 ca         1 PD1       0.190000
     13 C13          5.6710     3.3280    19.3610 ca         1 PD1       0.033000
     14 C14          6.1850     4.2900    18.4670 cp         1 PD1      -0.167000
     15 C15          7.2570     5.0800    18.9500 ca         1 PD1       0.322900
     16 C16          5.6090     4.4380    17.0970 cp         1 PD1       0.030000
     17 C17          5.3840     3.3030    16.2860 ca         1 PD1      -0.181000
     18 C18          4.8360     3.4200    15.0010 ca         1 PD1       0.183100
     19 C19          4.4910     4.6910    14.4990 ca         1 PD1      -0.284000
     20 C20          4.6960     5.8360    15.2960 ca         1 PD1       0.183100
     21 C21          5.2460     5.7020    16.5790 ca         1 PD1      -0.181000
     22 C22          4.1030     2.2630    12.9460 c3         1 PD1       0.148900
     23 C23          3.8030     7.3610    13.5720 c3         1 PD1       0.148900
     24 C24          8.2120     7.3310    18.3100 c          1 PD1       0.662100
     25 C25          8.0560     9.1890    20.0540 c3         1 PD1       0.153400
     26 C26          9.5620     9.5510    20.0880 c3         1 PD1      -0.104433
     27 C27          7.2700    10.2050    19.1890 c3         1 PD1      -0.104433
     28 C28          7.4980     9.2150    21.4960 c3         1 PD1      -0.104433
     29 N1          11.7090     4.1470    29.2350 n3         1 PD1      -0.730600
     30 N2           7.8030     2.8430    24.3590 nu         1 PD1      -0.914100
     31 N3           6.2600     2.1530    22.7950 nb         1 PD1      -0.250000
     32 N4           7.8170     3.9080    22.2770 nb         1 PD1      -0.264000
     33 N5           7.8050     4.9570    20.1750 nb         1 PD1      -0.267000
     34 N6           7.8920     6.0110    18.1060 ns         1 PD1      -0.340900
     35 N7           7.8650     7.8260    19.5470 ns         1 PD1      -0.508900
     36 O1           4.6570     2.2610    14.2740 os         1 PD1      -0.338600
     37 O2           4.3720     7.1060    14.8690 os         1 PD1      -0.338600
     38 O3           8.7460     7.9920    17.4350 o          1 PD1      -0.638100
     39 H11         10.1820     7.0450    30.4220 hc         1 PD1       0.036533
     40 H12          9.3100     5.7580    29.5760 hc         1 PD1       0.036533
     41 H13A        10.1120     5.4190    31.1310 hc         1 PD1       0.036533
     42 H21A        11.5170     6.1410    28.4900 h1         1 PD1       0.027950
     43 H22         12.3160     6.0140    30.0530 h1         1 PD1       0.027950
     44 H31         15.1660     3.7790    29.1330 hc         1 PD1       0.036533
     45 H32         14.3630     5.2720    29.6400 hc         1 PD1       0.036533
     46 H33         14.1180     3.7680    30.5660 hc         1 PD1       0.036533
     47 H41         13.1720     4.3090    27.6910 h1         1 PD1       0.027950
     48 H42         13.0970     2.7330    28.4840 h1         1 PD1       0.027950
     49 H51          9.6640     3.5560    29.0980 h1         1 PD1       0.049700
     50 H52         10.8060     2.3730    28.4990 h1         1 PD1       0.049700
     51 H61         10.0870     4.9900    27.0700 hc         1 PD1       0.045200
     52 H62         11.2410     3.7960    26.4740 hc         1 PD1       0.045200
     53 H71          9.4190     2.0760    26.3910 hc         1 PD1       0.045200
     54 H72          8.2650     3.2720    26.9910 hc         1 PD1       0.045200
     55 H81          8.6620     4.6840    24.9570 h1         1 PD1       0.057700
     56 H82          9.8220     3.4810    24.3530 h1         1 PD1       0.057700
     57 H10          4.9100     1.6080    21.3140 h4         1 PD1       0.022100
     58 H13          4.8420     2.6880    19.0620 ha         1 PD1       0.125000
     59 H17          5.6490     2.3170    16.6570 ha         1 PD1       0.135500
     60 H19          4.0670     4.7880    13.5070 ha         1 PD1       0.123000
     61 H21          5.3800     6.5930    17.1850 ha         1 PD1       0.135500
     62 H221         4.0500     1.2390    12.5560 h1         1 PD1       0.042033
     63 H222         3.0880     2.6790    12.9470 h1         1 PD1       0.042033
     64 H223         4.7270     2.8540    12.2640 h1         1 PD1       0.042033
     65 H231         3.6250     8.4360    13.4400 h1         1 PD1       0.042033
     66 H232         4.4810     7.0290    12.7760 h1         1 PD1       0.042033
     67 H233         2.8430     6.8410    13.4580 h1         1 PD1       0.042033
     68 H261        10.1290     8.8080    20.6610 hc         1 PD1       0.044144
     69 H262         9.9880     9.6010    19.0800 hc         1 PD1       0.044144
     70 H263         9.7140    10.5300    20.5590 hc         1 PD1       0.044144
     71 H271         6.2110     9.9260    19.1250 hc         1 PD1       0.044144
     72 H272         7.3290    11.2110    19.6220 hc         1 PD1       0.044144
     73 H273         7.6680    10.2610    18.1700 hc         1 PD1       0.044144
     74 H281         6.4320     8.9560    21.5100 hc         1 PD1       0.044144
     75 H282         8.0290     8.4990    22.1360 hc         1 PD1       0.044144
     76 H283         7.6090    10.2110    21.9410 hc         1 PD1       0.044144
     77 HN2          7.3610     2.1280    24.9370 hn         1 PD1       0.508000
     78 HN6          8.0750     5.6710    17.1730 hn         1 PD1       0.182000
     79 HN7          7.4560     7.1490    20.1770 hn         1 PD1       0.369500
@<TRIPOS>BOND
     1     1     2 1   
     2     1    39 1   
     3     1    40 1   
     4     1    41 1   
     5     2    29 1   
     6     2    42 1   
     7     2    43 1   
     8     3     4 1   
     9     3    44 1   
    10     3    45 1   
    11     3    46 1   
    12     4    29 1   
    13     4    47 1   
    14     4    48 1   
    15     5     6 1   
    16     5    29 1   
    17     5    49 1   
    18     5    50 1   
    19     6     7 1   
    20     6    51 1   
    21     6    52 1   
    22     7     8 1   
    23     7    53 1   
    24     7    54 1   
    25     8    30 1   
    26     8    55 1   
    27     8    56 1   
    28     9    30 1   
    29     9    31 ar  
    30     9    32 ar  
    31    10    11 ar  
    32    10    31 ar  
    33    10    57 1   
    34    11    12 ar  
    35    11    13 ar  
    36    12    32 ar  
    37    12    33 ar  
    38    13    14 ar  
    39    13    58 1   
    40    14    15 ar  
    41    14    16 1   
    42    15    33 ar  
    43    15    34 1   
    44    16    17 ar  
    45    16    21 ar  
    46    17    18 ar  
    47    17    59 1   
    48    18    19 ar  
    49    18    36 1   
    50    19    20 ar  
    51    19    60 1   
    52    20    21 ar  
    53    20    37 1   
    54    21    61 1   
    55    22    36 1   
    56    22    62 1   
    57    22    63 1   
    58    22    64 1   
    59    23    37 1   
    60    23    65 1   
    61    23    66 1   
    62    23    67 1   
    63    24    34 1   
    64    24    35 1   
    65    24    38 2   
    66    25    26 1   
    67    25    27 1   
    68    25    28 1   
    69    25    35 1   
    70    26    68 1   
    71    26    69 1   
    72    26    70 1   
    73    27    71 1   
    74    27    72 1   
    75    27    73 1   
    76    28    74 1   
    77    28    75 1   
    78    28    76 1   
    79    30    77 1   
    80    34    78 1   
    81    35    79 1   
@<TRIPOS>SUBSTRUCTURE
     1 PD1         1 TEMP              0 ****  ****    0 ROOT
