@<TRIPOS>MOLECULE
PD1
   79    81     1     0     0
SMALL
abcg2


@<TRIPOS>ATOM
      1 C1           9.7700     5.1250    30.5550 c3         1 PD1      -0.091100
      2 C2          10.8280     5.5930    29.5680 c3         1 PD1       0.173800
      3 C3          13.8580     5.2250    28.9950 c3         1 PD1      -0.091100
      4 C4          12.6480     4.9550    28.1130 c3         1 PD1       0.173800
      5 C5          10.5900     3.6840    28.0660 c3         1 PD1       0.173800
      6 C6           9.8830     4.3560    26.8850 c3         1 PD1      -0.111400
      7 C7           8.9950     3.3650    26.1450 c3         1 PD1      -0.094400
      8 C8           8.3110     3.9890    24.9380 c3         1 PD1       0.234800
      9 C9           6.9660     3.1210    23.0550 ca         1 PD1       0.410900
     10 C10          5.6740     2.1460    21.4660 ca         1 PD1       0.203900
     11 C11          5.9950     3.1760    20.5630 ca         1 PD1      -0.300000
     12 C12          6.8490     4.1830    21.0540 ca         1 PD1       0.190000
     13 C13          5.5170     3.2820    19.2470 ca         1 PD1       0.033000
     14 C14          5.8730     4.3420    18.4620 cp         1 PD1      -0.167000
     15 C15          6.7710     5.3010    19.0430 ca         1 PD1       0.322900
     16 C16          5.3500     4.4660    17.0820 cp         1 PD1       0.030000
     17 C17          5.5650     3.4310    16.1800 ca         1 PD1      -0.181000
     18 C18          5.0330     3.5150    14.8940 ca         1 PD1       0.183100
     19 C19          4.2960     4.6320    14.5030 ca         1 PD1      -0.284000
     20 C20          4.0900     5.6650    15.4170 ca         1 PD1       0.183100
     21 C21          4.6120     5.5850    16.7060 ca         1 PD1      -0.181000
     22 C22          4.7710     2.4850    12.7680 c3         1 PD1       0.148900
     23 C23          2.7910     6.9070    13.8610 c3         1 PD1       0.148900
     24 C24          8.0000     7.4590    18.5490 c          1 PD1       0.662100
     25 C25          9.2990     8.6370    20.3260 c3         1 PD1       0.153400
     26 C26         10.6350     8.7360    19.5890 c3         1 PD1      -0.104433
     27 C27          8.5520     9.9700    20.2650 c3         1 PD1      -0.104433
     28 C28          9.5610     8.2770    21.7880 c3         1 PD1      -0.104433
     29 N1          11.4840     4.5060    28.8610 n3         1 PD1      -0.730600
     30 N2           7.4400     3.0260    24.3020 nu         1 PD1      -0.914100
     31 N3           6.1370     2.1030    22.6800 nb         1 PD1      -0.250000
     32 N4           7.3240     4.1510    22.3040 nb         1 PD1      -0.264000
     33 N5           7.2200     5.2130    20.2750 nb         1 PD1      -0.267000
     34 N6           7.1950     6.3420    18.2640 ns         1 PD1      -0.340900
     35 N7           8.4770     7.5460    19.7930 ns         1 PD1      -0.508900
     36 O1           5.2810     2.4700    14.0860 os         1 PD1      -0.338600
     37 O2           3.3840     6.7730    15.1370 os         1 PD1      -0.338600
     38 O3           8.1910     8.2540    17.6400 o          1 PD1      -0.638100
     39 H11          9.4240     5.9670    31.1550 hc         1 PD1       0.036533
     40 H12          8.8960     4.6990    30.0610 hc         1 PD1       0.036533
     41 H13A        10.1770     4.3730    31.2320 hc         1 PD1       0.036533
     42 H21A        10.3820     6.3310    28.8800 h1         1 PD1       0.027950
     43 H22         11.5920     6.1370    30.1260 h1         1 PD1       0.027950
     44 H31         14.7140     5.5100    28.3830 hc         1 PD1       0.036533
     45 H32         13.6870     6.0340    29.7060 hc         1 PD1       0.036533
     46 H33         14.1300     4.3330    29.5610 hc         1 PD1       0.036533
     47 H41         12.4330     5.8480    27.5050 h1         1 PD1       0.027950
     48 H42         12.9110     4.1650    27.4040 h1         1 PD1       0.027950
     49 H51          9.8330     3.2480    28.7240 h1         1 PD1       0.049700
     50 H52         11.1720     2.8370    27.6880 h1         1 PD1       0.049700
     51 H61          9.2760     5.1970    27.2340 hc         1 PD1       0.045200
     52 H62         10.6220     4.7740    26.1940 hc         1 PD1       0.045200
     53 H71          9.5900     2.5080    25.8140 hc         1 PD1       0.045200
     54 H72          8.2390     2.9730    26.8330 hc         1 PD1       0.045200
     55 H81          7.7480     4.8780    25.2440 h1         1 PD1       0.057700
     56 H82          9.0600     4.3240    24.2190 h1         1 PD1       0.057700
     57 H10          5.0110     1.3420    21.1560 h4         1 PD1       0.022100
     58 H13          4.8430     2.5250    18.8620 ha         1 PD1       0.125000
     59 H17          6.1480     2.5650    16.4650 ha         1 PD1       0.135500
     60 H19          3.8890     4.6970    13.5050 ha         1 PD1       0.123000
     61 H21          4.4130     6.3820    17.4130 ha         1 PD1       0.135500
     62 H221         5.0850     1.5520    12.3060 h1         1 PD1       0.042033
     63 H222         3.6790     2.5340    12.7520 h1         1 PD1       0.042033
     64 H223         5.1700     3.3180    12.1840 h1         1 PD1       0.042033
     65 H231         2.2660     7.8590    13.8650 h1         1 PD1       0.042033
     66 H232         3.5360     6.9220    13.0610 h1         1 PD1       0.042033
     67 H233         2.0700     6.1100    13.6590 h1         1 PD1       0.042033
     68 H261        11.1780     7.7910    19.6380 hc         1 PD1       0.044144
     69 H262        10.5010     9.0030    18.5420 hc         1 PD1       0.044144
     70 H263        11.2570     9.5040    20.0520 hc         1 PD1       0.044144
     71 H271         7.5950     9.9000    20.7840 hc         1 PD1       0.044144
     72 H272         9.1420    10.7480    20.7510 hc         1 PD1       0.044144
     73 H273         8.3660    10.2830    19.2390 hc         1 PD1       0.044144
     74 H281         8.6290     8.2080    22.3520 hc         1 PD1       0.044144
     75 H282        10.0850     7.3230    21.8740 hc         1 PD1       0.044144
     76 H283        10.1790     9.0420    22.2570 hc         1 PD1       0.044144
     77 HN2          7.0860     2.2620    24.8550 hn         1 PD1       0.508000
     78 HN6          6.8660     6.3490    17.3090 hn         1 PD1       0.182000
     79 HN7          8.2290     6.7810    20.4150 hn         1 PD1       0.369500
@<TRIPOS>BOND
     1     1     2 1   
     2     1    39 1   
     3     1    40 1   
     4     1    41 1   
     5     2    29 1   
     6     2    42 1   
     7     2    43 1   
     8     3     4 1   
     9     3    44 1   
    10     3    45 1   
    11     3    46 1   
    12     4    29 1   
    13     4    47 1   
    14     4    48 1   
    15     5     6 1   
    16     5    29 1   
    17     5    49 1   
    18     5    50 1   
    19     6     7 1   
    20     6    51 1   
    21     6    52 1   
    22     7     8 1   
    23     7    53 1   
    24     7    54 1   
    25     8    30 1   
    26     8    55 1   
    27     8    56 1   
    28     9    30 1   
    29     9    31 ar  
    30     9    32 ar  
    31    10    11 ar  
    32    10    31 ar  
    33    10    57 1   
    34    11    12 ar  
    35    11    13 ar  
    36    12    32 ar  
    37    12    33 ar  
    38    13    14 ar  
    39    13    58 1   
    40    14    15 ar  
    41    14    16 1   
    42    15    33 ar  
    43    15    34 1   
    44    16    17 ar  
    45    16    21 ar  
    46    17    18 ar  
    47    17    59 1   
    48    18    19 ar  
    49    18    36 1   
    50    19    20 ar  
    51    19    60 1   
    52    20    21 ar  
    53    20    37 1   
    54    21    61 1   
    55    22    36 1   
    56    22    62 1   
    57    22    63 1   
    58    22    64 1   
    59    23    37 1   
    60    23    65 1   
    61    23    66 1   
    62    23    67 1   
    63    24    34 1   
    64    24    35 1   
    65    24    38 2   
    66    25    26 1   
    67    25    27 1   
    68    25    28 1   
    69    25    35 1   
    70    26    68 1   
    71    26    69 1   
    72    26    70 1   
    73    27    71 1   
    74    27    72 1   
    75    27    73 1   
    76    28    74 1   
    77    28    75 1   
    78    28    76 1   
    79    30    77 1   
    80    34    78 1   
    81    35    79 1   
@<TRIPOS>SUBSTRUCTURE
     1 PD1         1 TEMP              0 ****  ****    0 ROOT
