@<TRIPOS>MOLECULE
PD2
   15    15     1     0     0
SMALL
bcc


@<TRIPOS>ATOM
      1 O42          2.5040     1.7770     0.0250 o          1 PD2      -0.848300
      2 C41          2.5460     0.5340     0.0350 c          1 PD2       0.927200
      3 O41          3.5610    -0.1870     0.0610 o          1 PD2      -0.848300
      4 C4           1.2040    -0.1930     0.0150 ca         1 PD2      -0.145600
      5 C5           1.1360    -1.5800     0.0060 ca         1 PD2      -0.248300
      6 C6          -0.1100    -2.1870    -0.0090 ca         1 PD2       0.319200
      7 C3           0.0010     0.5020     0.0060 ca         1 PD2      -0.189300
      8 C2          -1.2070    -0.1890    -0.0040 ca         1 PD2       0.310800
      9 N1          -1.2560    -1.5200    -0.0120 nb         1 PD2      -0.668000
     10 C21         -2.5350     0.5720    -0.0030 c          1 PD2       0.825100
     11 O21         -2.4510     1.8150    -0.0520 o          1 PD2      -0.838800
     12 O22         -3.5710    -0.1100     0.0500 o          1 PD2      -0.838800
     13 H5           2.0340    -2.1830     0.0120 ha         1 PD2       0.120000
     14 H6          -0.1830    -3.2710    -0.0190 h4         1 PD2      -0.041900
     15 H3          -0.0010     1.5830     0.0100 ha         1 PD2       0.165000
@<TRIPOS>BOND
     1     1     2 1   
     2     2     3 1   
     3     2     4 1   
     4     4     5 ar  
     5     4     7 ar  
     6     5     6 ar  
     7     5    13 1   
     8     6     9 ar  
     9     6    14 1   
    10     7     8 ar  
    11     7    15 1   
    12     8     9 ar  
    13     8    10 1   
    14    10    11 1   
    15    10    12 1   
@<TRIPOS>SUBSTRUCTURE
     1 PD2         1 TEMP              0 ****  ****    0 ROOT
