@<TRIPOS>MOLECULE
PD2
   15    15     1     0     0
SMALL
No Charge or Current Charge


@<TRIPOS>ATOM
      1 O42          2.5500     1.7630     0.0310 o          1 PD2      -0.743000
      2 C41          2.5600     0.5410     0.0270 c          1 PD2       0.716600
      3 O41          3.5930    -0.1130     0.0310 o          1 PD2      -0.743000
      4 C4           1.2300    -0.1970     0.0160 ca         1 PD2      -0.145600
      5 C5           1.1600    -1.6070     0.0110 ca         1 PD2      -0.165000
      6 C6          -0.0900    -2.2420     0.0000 ca         1 PD2       0.253900
      7 C3          -0.0010     0.5010     0.0100 ca         1 PD2      -0.106000
      8 C2          -1.2340    -0.1990    -0.0000 ca         1 PD2       0.245500
      9 N1          -1.2600    -1.5710    -0.0050 nb         1 PD2      -0.668000
     10 C21         -2.5680     0.6050    -0.0060 c          1 PD2       0.614500
     11 O21         -2.5250     1.8310    -0.0020 o          1 PD2      -0.733500
     12 O22         -3.6390     0.0040    -0.0160 o          1 PD2      -0.733500
     13 H5           2.0630    -2.2120     0.0150 ha         1 PD2       0.102000
     14 H6          -0.1600    -3.3290    -0.0040 h4         1 PD2      -0.041900
     15 H3          -0.0050     1.5880     0.0140 ha         1 PD2       0.147000
@<TRIPOS>BOND
     1     1     2 1   
     2     2     3 1   
     3     2     4 1   
     4     4     5 ar  
     5     4     7 ar  
     6     5     6 ar  
     7     5    13 1   
     8     6     9 ar  
     9     6    14 1   
    10     7     8 ar  
    11     7    15 1   
    12     8     9 ar  
    13     8    10 1   
    14    10    11 1   
    15    10    12 1   
@<TRIPOS>SUBSTRUCTURE
     1 PD2         1 TEMP              0 ****  ****    0 ROOT
