@<TRIPOS>MOLECULE
PD3
   60    64     1     0     0
SMALL
No Charge or Current Charge


@<TRIPOS>ATOM
      1 C4          -4.3310     1.1720    -0.8290 ca         1 PD3       0.162500
      2 C5          -4.2410    -0.1470    -0.4960 ca         1 PD3      -0.383900
      3 C6          -4.3900    -1.1200    -1.4760 ca         1 PD3       0.455900
      4 N1          -4.6260    -0.7740    -2.7490 nb         1 PD3      -0.311000
      5 N3          -4.5670     1.5580    -2.0990 nb         1 PD3      -0.230000
      6 CAQ         -2.8300     3.9560     1.0810 c5         1 PD3      -0.090900
      7 CAO         -3.2180     5.4490     1.2910 c5         1 PD3      -0.079400
      8 CAP         -4.7550     5.4260     1.5790 c5         1 PD3      -0.079400
      9 CAR         -5.1420     3.9200     1.5360 c5         1 PD3      -0.090900
     10 CBH         -4.1370     3.3570     0.4990 c5         1 PD3       0.099300
     11 NBI         -4.1420     1.8950     0.3400 na         1 PD3      -0.010100
     12 NAV         -3.9380     1.0390     1.4330 nc         1 PD3      -0.530100
     13 C2          -4.7040     0.5550    -3.0000 ca         1 PD3       0.196900
     14 NAA         -4.2970    -2.4430    -1.2340 nv         1 PD3      -1.068900
     15 CBE         -3.9990    -0.1970     0.9230 cd         1 PD3       0.388900
     16 CAS         -3.8310    -1.4040     1.8160 c3         1 PD3      -0.035400
     17 CAZ         -2.6380    -2.2900     1.4710 ca         1 PD3      -0.054300
     18 CAM         -1.3940    -1.7180     1.1360 ca         1 PD3      -0.152000
     19 CAH         -2.7690    -3.6900     1.4830 ca         1 PD3      -0.125000
     20 CAF         -1.6750    -4.5050     1.1540 ca         1 PD3      -0.085000
     21 CAI         -0.4400    -3.9280     0.8130 ca         1 PD3      -0.122000
     22 CBB         -0.2890    -2.5240     0.8030 ca         1 PD3      -0.010000
     23 NAW          0.9260    -1.8610     0.4730 ns         1 PD3      -0.161000
     24 CAY          2.1760    -2.3320     0.0940 c          1 PD3       0.670100
     25 OAB          2.4600    -3.5170    -0.0320 o          1 PD3      -0.602100
     26 NAX          3.0640    -1.2880    -0.1260 ns         1 PD3      -0.167000
     27 CBC          4.4310    -1.2570    -0.5200 ca         1 PD3      -0.010000
     28 CAN          5.0360     0.0070    -0.6620 ca         1 PD3      -0.123000
     29 CAJ          5.2000    -2.4150    -0.7710 ca         1 PD3      -0.097000
     30 CAG          6.5470    -2.2990    -1.1500 ca         1 PD3      -0.091000
     31 CAK          7.1400    -1.0350    -1.2880 ca         1 PD3      -0.087000
     32 CBD          6.3870     0.1350    -1.0520 ca         1 PD3      -0.168300
     33 CBJ          7.0300     1.5220    -1.1900 c3         1 PD3       0.356300
     34 FAD          7.5140     1.9580    -0.0060 f          1 PD3      -0.113667
     35 FAE          8.0620     1.5300    -2.0650 f          1 PD3      -0.113667
     36 FAC          6.1500     2.4530    -1.6250 f          1 PD3      -0.113667
     37 HAQA        -2.5530     3.4800     2.0290 hc         1 PD3       0.058450
     38 HAO         -2.6500     5.9010     2.1130 hc         1 PD3       0.045450
     39 HAOA        -3.0020     6.0410     0.3940 hc         1 PD3       0.045450
     40 HAP         -5.0020     5.8800     2.5450 hc         1 PD3       0.045450
     41 HAPA        -5.2990     5.9930     0.8140 hc         1 PD3       0.045450
     42 HAR         -5.0190     3.4490     2.5190 hc         1 PD3       0.058450
     43 HARA        -6.1840     3.7670     1.2320 hc         1 PD3       0.058450
     44 HBH         -4.3380     3.8070    -0.4840 h1         1 PD3       0.087700
     45 H2          -4.8960     0.8480    -4.0310 h5         1 PD3       0.046100
     46 HNAA        -3.7680    -2.7280    -0.4150 hn         1 PD3       0.497000
     47 HNAB        -4.2250    -3.0580    -2.0390 hn         1 PD3       0.497000
     48 HAS         -3.7370    -1.0800     2.8590 hc         1 PD3       0.057200
     49 HASA        -4.7580    -1.9890     1.7780 hc         1 PD3       0.057200
     50 HAM         -1.2850    -0.6360     1.1340 ha         1 PD3       0.115000
     51 HAH         -3.7180    -4.1520     1.7490 ha         1 PD3       0.111000
     52 HAF         -1.7830    -5.5870     1.1640 ha         1 PD3       0.117000
     53 HAI          0.3830    -4.5900     0.5640 ha         1 PD3       0.146000
     54 HNAW         0.8630    -0.8540     0.5270 hn         1 PD3       0.148000
     55 HNAX         2.6650    -0.3700     0.0210 hn         1 PD3       0.150000
     56 HAN          4.4480     0.9010    -0.4620 ha         1 PD3       0.125000
     57 HAJ          4.7780    -3.4100    -0.6740 ha         1 PD3       0.150000
     58 HAG          7.1350    -3.1950    -1.3370 ha         1 PD3       0.124000
     59 HAK          8.1880    -0.9700    -1.5770 ha         1 PD3       0.132000
     60 HAQ         -1.9790     3.8400     0.4000 hc         1 PD3       0.058450
@<TRIPOS>BOND
     1     1     2 ar  
     2     1     5 ar  
     3     1    11 1   
     4     2     3 ar  
     5     2    15 1   
     6     3     4 ar  
     7     3    14 1   
     8     4    13 ar  
     9     5    13 ar  
    10     6     7 1   
    11     6    10 1   
    12     6    37 1   
    13     6    60 1   
    14     7     8 1   
    15     7    38 1   
    16     7    39 1   
    17     8     9 1   
    18     8    40 1   
    19     8    41 1   
    20     9    10 1   
    21     9    42 1   
    22     9    43 1   
    23    10    11 1   
    24    10    44 1   
    25    11    12 1   
    26    12    15 2   
    27    13    45 1   
    28    14    46 1   
    29    14    47 1   
    30    15    16 1   
    31    16    17 1   
    32    16    48 1   
    33    16    49 1   
    34    17    18 ar  
    35    17    19 ar  
    36    18    22 ar  
    37    18    50 1   
    38    19    20 ar  
    39    19    51 1   
    40    20    21 ar  
    41    20    52 1   
    42    21    22 ar  
    43    21    53 1   
    44    22    23 1   
    45    23    24 1   
    46    23    54 1   
    47    24    25 2   
    48    24    26 1   
    49    26    27 1   
    50    26    55 1   
    51    27    28 ar  
    52    27    29 ar  
    53    28    32 ar  
    54    28    56 1   
    55    29    30 ar  
    56    29    57 1   
    57    30    31 ar  
    58    30    58 1   
    59    31    32 ar  
    60    31    59 1   
    61    32    33 1   
    62    33    34 1   
    63    33    35 1   
    64    33    36 1   
@<TRIPOS>SUBSTRUCTURE
     1 PD3         1 TEMP              0 ****  ****    0 ROOT
