@<TRIPOS>MOLECULE
PD3
   60    64     1     0     0
SMALL
abcg2


@<TRIPOS>ATOM
      1 C4          -5.2720     0.7930    -0.5160 ca         1 PD3       0.162500
      2 C5          -5.2290    -0.4940     0.0310 ca         1 PD3      -0.383900
      3 C6          -6.1800    -1.4050    -0.4830 ca         1 PD3       0.455900
      4 N1          -7.0020    -0.9970    -1.4520 nb         1 PD3      -0.311000
      5 N3          -6.1020     1.2130    -1.4770 nb         1 PD3      -0.230000
      6 CAQ         -2.5040     3.0850    -0.5660 c5         1 PD3      -0.090900
      7 CAO         -2.0660     4.4410     0.0250 c5         1 PD3      -0.079400
      8 CAP         -3.3110     5.0170     0.7170 c5         1 PD3      -0.079400
      9 CAR         -4.1090     3.7840     1.1200 c5         1 PD3      -0.090900
     10 CBH         -3.9630     2.8930    -0.1110 c5         1 PD3       0.099300
     11 NBI         -4.3220     1.5100     0.1090 na         1 PD3      -0.010100
     12 NAV         -3.6680     0.7640     1.0140 nc         1 PD3      -0.530100
     13 C2          -6.9140     0.2610    -1.8840 ca         1 PD3       0.196900
     14 NAA         -6.2960    -2.6670    -0.0600 nv         1 PD3      -1.068900
     15 CBE         -4.1820    -0.4400     0.9900 cd         1 PD3       0.388900
     16 CAS         -3.5900    -1.5300     1.8270 c3         1 PD3      -0.035400
     17 CAZ         -2.4340    -2.1870     1.1110 ca         1 PD3      -0.054300
     18 CAM         -1.1580    -1.6610     1.2510 ca         1 PD3      -0.152000
     19 CAH         -2.6270    -3.2790     0.2710 ca         1 PD3      -0.125000
     20 CAF         -1.5440    -3.8250    -0.4010 ca         1 PD3      -0.085000
     21 CAI         -0.2640    -3.3080    -0.2580 ca         1 PD3      -0.122000
     22 CBB         -0.0640    -2.2080     0.5770 ca         1 PD3      -0.010000
     23 NAW          1.1810    -1.6260     0.8290 ns         1 PD3      -0.161000
     24 CAY          2.3100    -1.7060     0.0630 c          1 PD3       0.670100
     25 OAB          2.3910    -2.3520    -0.9650 o          1 PD3      -0.602100
     26 NAX          3.3510    -0.9820     0.5870 ns         1 PD3      -0.167000
     27 CBC          4.6210    -0.8270     0.0340 ca         1 PD3      -0.010000
     28 CAN          5.3400     0.3090     0.4130 ca         1 PD3      -0.123000
     29 CAJ          5.2180    -1.7510    -0.8240 ca         1 PD3      -0.097000
     30 CAG          6.5030    -1.5210    -1.2940 ca         1 PD3      -0.091000
     31 CAK          7.2200    -0.3970    -0.9200 ca         1 PD3      -0.087000
     32 CBD          6.6260     0.5160    -0.0560 ca         1 PD3      -0.168300
     33 CBJ          7.4130     1.7090     0.3890 c3         1 PD3       0.356300
     34 FAD          8.3430     1.3710     1.2960 f          1 PD3      -0.113667
     35 FAE          8.0650     2.2840    -0.6290 f          1 PD3      -0.113667
     36 FAC          6.6520     2.6530     0.9500 f          1 PD3      -0.113667
     37 HAQA        -1.8850     2.2750    -0.1800 hc         1 PD3       0.058450
     38 HAO         -1.2730     4.2890     0.7590 hc         1 PD3       0.045450
     39 HAOA        -1.6680     5.1160    -0.7320 hc         1 PD3       0.045450
     40 HAP         -3.0650     5.6580     1.5640 hc         1 PD3       0.045450
     41 HAPA        -3.8930     5.6200     0.0150 hc         1 PD3       0.045450
     42 HAR         -3.6500     3.2990     1.9860 hc         1 PD3       0.058450
     43 HARA        -5.1520     3.9940     1.3640 hc         1 PD3       0.058450
     44 HBH         -4.6410     3.2480    -0.8890 h1         1 PD3       0.087700
     45 H2          -7.6100     0.5290    -2.6720 h5         1 PD3       0.046100
     46 HNAA        -5.8340    -2.9920     0.7700 hn         1 PD3       0.497000
     47 HNAB        -7.0510    -3.2310    -0.4120 hn         1 PD3       0.497000
     48 HAS         -3.2440    -1.1030     2.7700 hc         1 PD3       0.057200
     49 HASA        -4.3460    -2.2720     2.0870 hc         1 PD3       0.057200
     50 HAM         -1.0100    -0.8020     1.8980 ha         1 PD3       0.115000
     51 HAH         -3.6130    -3.7070     0.1380 ha         1 PD3       0.111000
     52 HAF         -1.6900    -4.6810    -1.0480 ha         1 PD3       0.117000
     53 HAI          0.5550    -3.7700    -0.7840 ha         1 PD3       0.146000
     54 HNAW         1.1930    -0.9920     1.6140 hn         1 PD3       0.148000
     55 HNAX         3.1590    -0.3870     1.3790 hn         1 PD3       0.150000
     56 HAN          4.8720     1.0260     1.0750 ha         1 PD3       0.125000
     57 HAJ          4.7010    -2.6470    -1.1250 ha         1 PD3       0.150000
     58 HAG          6.9550    -2.2440    -1.9600 ha         1 PD3       0.124000
     59 HAK          8.2220    -0.2460    -1.2980 ha         1 PD3       0.132000
     60 HAQ         -2.4280     3.0570    -1.6530 hc         1 PD3       0.058450
@<TRIPOS>BOND
     1     1     2 ar  
     2     1     5 ar  
     3     1    11 1   
     4     2     3 ar  
     5     2    15 1   
     6     3     4 ar  
     7     3    14 1   
     8     4    13 ar  
     9     5    13 ar  
    10     6     7 1   
    11     6    10 1   
    12     6    37 1   
    13     6    60 1   
    14     7     8 1   
    15     7    38 1   
    16     7    39 1   
    17     8     9 1   
    18     8    40 1   
    19     8    41 1   
    20     9    10 1   
    21     9    42 1   
    22     9    43 1   
    23    10    11 1   
    24    10    44 1   
    25    11    12 1   
    26    12    15 2   
    27    13    45 1   
    28    14    46 1   
    29    14    47 1   
    30    15    16 1   
    31    16    17 1   
    32    16    48 1   
    33    16    49 1   
    34    17    18 ar  
    35    17    19 ar  
    36    18    22 ar  
    37    18    50 1   
    38    19    20 ar  
    39    19    51 1   
    40    20    21 ar  
    41    20    52 1   
    42    21    22 ar  
    43    21    53 1   
    44    22    23 1   
    45    23    24 1   
    46    23    54 1   
    47    24    25 2   
    48    24    26 1   
    49    26    27 1   
    50    26    55 1   
    51    27    28 ar  
    52    27    29 ar  
    53    28    32 ar  
    54    28    56 1   
    55    29    30 ar  
    56    29    57 1   
    57    30    31 ar  
    58    30    58 1   
    59    31    32 ar  
    60    31    59 1   
    61    32    33 1   
    62    33    34 1   
    63    33    35 1   
    64    33    36 1   
@<TRIPOS>SUBSTRUCTURE
     1 PD3         1 TEMP              0 ****  ****    0 ROOT
