@<TRIPOS>MOLECULE
PD4
   66    69     1     0     0
SMALL
No Charge or Current Charge


@<TRIPOS>ATOM
      1 C           -2.9150    -1.1260     0.1390 cp         1 PD4       0.445500
      2 C1          -2.1280    -2.1490     0.7160 ca         1 PD4      -0.170000
      3 C2          -0.7280    -2.1030     0.6140 ca         1 PD4      -0.042000
      4 C3          -0.1150    -1.0320    -0.0590 ca         1 PD4       0.096400
      5 C4          -0.9860    -0.0360    -0.5960 ca         1 PD4       0.434900
      6 N           -2.3340    -0.0920    -0.5000 nb         1 PD4      -0.724000
      7 N1           1.2950    -1.0340    -0.1380 nc         1 PD4      -0.649100
      8 C5           1.7640     0.0270    -0.8040 cd         1 PD4       0.618200
      9 C6           0.9630     1.1700    -1.4450 c          1 PD4       0.445700
     10 N2          -0.4330     1.0790    -1.2910 n          1 PD4      -0.348300
     11 O            1.4900     2.1000    -2.0560 o          1 PD4      -0.535000
     12 N3           3.1370     0.0560    -0.9110 nu         1 PD4      -0.881400
     13 C7           4.1050    -0.9350    -0.3870 c3         1 PD4       0.231800
     14 C8           5.5780    -0.5310    -0.6850 c3         1 PD4       0.149800
     15 N4           6.6140    -1.5200    -0.2760 n3         1 PD4      -0.713600
     16 C9           7.9770    -1.1560    -0.7770 c6         1 PD4       0.125300
     17 C10          9.0480    -2.2090    -0.3650 c6         1 PD4       0.153100
     18 O1           9.0430    -2.3930     1.0710 os         1 PD4      -0.449000
     19 C11          7.7550    -2.8230     1.5720 c6         1 PD4       0.153100
     20 C12          6.6530    -1.7860     1.2000 c6         1 PD4       0.125300
     21 C13         -4.4100    -1.1020     0.2080 cp         1 PD4      -0.238500
     22 C14         -5.1550     0.0850    -0.0110 ca         1 PD4      -0.013000
     23 C15         -6.5540     0.0340     0.0680 ca         1 PD4      -0.195000
     24 C16         -7.1860    -1.1800     0.3560 ca         1 PD4       0.594300
     25 N5          -6.4990    -2.3220     0.5610 nb         1 PD4      -0.762000
     26 C17         -5.1500    -2.2750     0.4870 ca         1 PD4       0.398900
     27 C18         -1.3130     2.1560    -1.8400 c3         1 PD4       0.099000
     28 O2          -8.5600    -1.1850     0.4240 os         1 PD4      -0.458300
     29 C19         -1.8450     3.1430    -0.7730 c3         1 PD4       0.144600
     30 O3          -0.7240     3.7670    -0.1190 os         1 PD4      -0.454000
     31 C20         -1.0800     4.6900     0.9200 c3         1 PD4       0.161600
     32 C21          0.2260     5.2500     1.5140 c3         1 PD4      -0.079400
     33 C22         -0.0140     6.2610     2.6530 c3         1 PD4      -0.089100
     34 C23         -9.2900    -2.3930     0.7160 c3         1 PD4       0.158900
     35 H1          -2.5900    -2.9710     1.2530 ha         1 PD4       0.127000
     36 H2          -0.1200    -2.8900     1.0560 ha         1 PD4       0.136000
     37 HN3          3.4880     0.8640    -1.4280 hn         1 PD4       0.520000
     38 H7           3.9740    -1.0380     0.6990 h1         1 PD4       0.061700
     39 H7A          3.9150    -1.9180    -0.8390 h1         1 PD4       0.061700
     40 H8           5.6570    -0.3640    -1.7680 h1         1 PD4       0.038200
     41 H8A          5.7760     0.4340    -0.1980 h1         1 PD4       0.038200
     42 H9           7.9700    -1.0720    -1.8740 h1         1 PD4       0.042450
     43 H9A          8.2790    -0.1750    -0.3820 h1         1 PD4       0.042450
     44 H10          8.8380    -3.1700    -0.8560 h1         1 PD4       0.052200
     45 H10A        10.0450    -1.8730    -0.6830 h1         1 PD4       0.052200
     46 H11          7.5070    -3.8040     1.1420 h1         1 PD4       0.052200
     47 H11A         7.8120    -2.9330     2.6650 h1         1 PD4       0.052200
     48 H12          6.8480    -0.8540     1.7510 h1         1 PD4       0.042450
     49 H12A         5.6870    -2.1740     1.5520 h1         1 PD4       0.042450
     50 H14         -4.6620     1.0300    -0.2320 ha         1 PD4       0.137000
     51 H15         -7.1500     0.9270    -0.0920 ha         1 PD4       0.138000
     52 H17         -4.6500    -3.2290     0.6440 h4         1 PD4       0.018100
     53 H18         -0.7810     2.7310    -2.6070 h1         1 PD4       0.079200
     54 H18A        -2.1700     1.6960    -2.3480 h1         1 PD4       0.079200
     55 H19         -2.4760     3.8960    -1.2620 h1         1 PD4       0.033200
     56 H19A        -2.4630     2.6010    -0.0450 h1         1 PD4       0.033200
     57 H20         -1.6850     5.5140     0.5180 h1         1 PD4       0.019200
     58 H20A        -1.6560     4.1860     1.7080 h1         1 PD4       0.019200
     59 H21          0.8340     4.4200     1.8940 hc         1 PD4       0.052200
     60 H21A         0.8040     5.7370     0.7190 hc         1 PD4       0.052200
     61 H22         -0.5940     7.1190     2.2930 hc         1 PD4       0.033367
     62 H22A        -0.5640     5.7920     3.4780 hc         1 PD4       0.033367
     63 H22B         0.9410     6.6310     3.0440 hc         1 PD4       0.033367
     64 H23        -10.3690    -2.1940     0.7270 h1         1 PD4       0.047367
     65 H23A        -9.0950    -3.1620    -0.0430 h1         1 PD4       0.047367
     66 H23B        -9.0090    -2.7940     1.6990 h1         1 PD4       0.047367
@<TRIPOS>BOND
     1     1     2 ar  
     2     1     6 ar  
     3     1    21 1   
     4     2     3 ar  
     5     2    35 1   
     6     3     4 ar  
     7     3    36 1   
     8     4     5 ar  
     9     4     7 1   
    10     5     6 ar  
    11     5    10 1   
    12     7     8 2   
    13     8     9 1   
    14     8    12 1   
    15     9    10 1   
    16     9    11 2   
    17    10    27 1   
    18    12    13 1   
    19    12    37 1   
    20    13    14 1   
    21    13    38 1   
    22    13    39 1   
    23    14    15 1   
    24    14    40 1   
    25    14    41 1   
    26    15    16 1   
    27    15    20 1   
    28    16    17 1   
    29    16    42 1   
    30    16    43 1   
    31    17    18 1   
    32    17    44 1   
    33    17    45 1   
    34    18    19 1   
    35    19    20 1   
    36    19    46 1   
    37    19    47 1   
    38    20    48 1   
    39    20    49 1   
    40    21    22 ar  
    41    21    26 ar  
    42    22    23 ar  
    43    22    50 1   
    44    23    24 ar  
    45    23    51 1   
    46    24    25 ar  
    47    24    28 1   
    48    25    26 ar  
    49    26    52 1   
    50    27    29 1   
    51    27    53 1   
    52    27    54 1   
    53    28    34 1   
    54    29    30 1   
    55    29    55 1   
    56    29    56 1   
    57    30    31 1   
    58    31    32 1   
    59    31    57 1   
    60    31    58 1   
    61    32    33 1   
    62    32    59 1   
    63    32    60 1   
    64    33    61 1   
    65    33    62 1   
    66    33    63 1   
    67    34    64 1   
    68    34    65 1   
    69    34    66 1   
@<TRIPOS>SUBSTRUCTURE
     1 PD4         1 TEMP              0 ****  ****    0 ROOT
