@<TRIPOS>MOLECULE
PD4
   66    69     1     0     0
SMALL
abcg2


@<TRIPOS>ATOM
      1 C           -2.8970    -1.1530     0.0600 cp         1 PD4       0.445500
      2 C1          -2.1530    -2.1870     0.6340 ca         1 PD4      -0.170000
      3 C2          -0.7760    -2.1450     0.5540 ca         1 PD4      -0.042000
      4 C3          -0.1410    -1.0840    -0.0870 ca         1 PD4       0.096400
      5 C4          -0.9830    -0.0980    -0.6260 ca         1 PD4       0.434900
      6 N           -2.2950    -0.1370    -0.5530 nb         1 PD4      -0.724000
      7 N1           1.2210    -1.0270    -0.1720 nc         1 PD4      -0.649100
      8 C5           1.7410    -0.0160    -0.7900 cd         1 PD4       0.618200
      9 C6           0.9480     1.0930    -1.4070 c          1 PD4       0.445700
     10 N2          -0.4020     0.9810    -1.2830 n          1 PD4      -0.348300
     11 O            1.5060     2.0100    -1.9840 o          1 PD4      -0.535000
     12 N3           3.0610     0.1120    -0.9220 nu         1 PD4      -0.881400
     13 C7           3.9960    -0.8350    -0.3640 c3         1 PD4       0.231800
     14 C8           5.4140    -0.4350    -0.7470 c3         1 PD4       0.149800
     15 N4           6.3960    -1.3530    -0.2120 n3         1 PD4      -0.713600
     16 C9           7.6620    -1.2540    -0.9180 c6         1 PD4       0.125300
     17 C10          8.6510    -2.2600    -0.3620 c6         1 PD4       0.153100
     18 O1           8.8530    -2.0820     1.0220 os         1 PD4      -0.449000
     19 C11          7.6320    -2.1770     1.7210 c6         1 PD4       0.153100
     20 C12          6.6170    -1.1710     1.2130 c6         1 PD4       0.125300
     21 C13         -4.3700    -1.1110     0.0980 cp         1 PD4      -0.238500
     22 C14         -5.0780    -0.0150    -0.4190 ca         1 PD4      -0.013000
     23 C15         -6.4490     0.0090    -0.3780 ca         1 PD4      -0.195000
     24 C16         -7.1070    -1.0880     0.1940 ca         1 PD4       0.594300
     25 N5          -6.4660    -2.1270     0.6840 nb         1 PD4      -0.762000
     26 C17         -5.1370    -2.1350     0.6350 ca         1 PD4       0.398900
     27 C18         -1.2540     2.0470    -1.8020 c3         1 PD4       0.099000
     28 O2          -8.4380    -1.0560     0.2300 os         1 PD4      -0.458300
     29 C19         -1.6870     3.0100    -0.7150 c3         1 PD4       0.144600
     30 O3          -0.5510     3.5680    -0.1150 os         1 PD4      -0.454000
     31 C20         -0.8480     4.3640     1.0070 c3         1 PD4       0.161600
     32 C21          0.4420     4.8590     1.6300 c3         1 PD4      -0.079400
     33 C22          0.1740     5.7290     2.8500 c3         1 PD4      -0.089100
     34 C23         -9.1200    -2.1600     0.8080 c3         1 PD4       0.158900
     35 H1          -2.6300    -3.0140     1.1380 ha         1 PD4       0.127000
     36 H2          -0.1740    -2.9320     0.9890 ha         1 PD4       0.136000
     37 HN3          3.4050     0.9410    -1.3800 hn         1 PD4       0.520000
     38 H7           3.8730    -0.8710     0.7220 h1         1 PD4       0.061700
     39 H7A          3.7850    -1.8380    -0.7410 h1         1 PD4       0.061700
     40 H8           5.4910    -0.4500    -1.8370 h1         1 PD4       0.038200
     41 H8A          5.6070     0.6040    -0.4300 h1         1 PD4       0.038200
     42 H9           7.5040    -1.4690    -1.9780 h1         1 PD4       0.042450
     43 H9A          8.0900    -0.2390    -0.8530 h1         1 PD4       0.042450
     44 H10          8.2870    -3.2770    -0.5680 h1         1 PD4       0.052200
     45 H10A         9.6190    -2.1440    -0.8520 h1         1 PD4       0.052200
     46 H11          7.2150    -3.1910     1.6320 h1         1 PD4       0.052200
     47 H11A         7.8420    -1.9920     2.7750 h1         1 PD4       0.052200
     48 H12          6.9660    -0.1480     1.4380 h1         1 PD4       0.042450
     49 H12A         5.6860    -1.3210     1.7640 h1         1 PD4       0.042450
     50 H14         -4.5390     0.8160    -0.8540 ha         1 PD4       0.137000
     51 H15         -7.0100     0.8460    -0.7720 ha         1 PD4       0.138000
     52 H17         -4.6720    -3.0210     1.0520 h4         1 PD4       0.018100
     53 H18         -0.7050     2.5690    -2.5810 h1         1 PD4       0.079200
     54 H18A        -2.1360     1.6020    -2.2570 h1         1 PD4       0.079200
     55 H19         -2.3240     3.7780    -1.1770 h1         1 PD4       0.033200
     56 H19A        -2.3060     2.4870     0.0250 h1         1 PD4       0.033200
     57 H20         -1.4790     5.2190     0.7200 h1         1 PD4       0.019200
     58 H20A        -1.4220     3.7860     1.7470 h1         1 PD4       0.019200
     59 H21          1.0570     4.0000     1.9130 hc         1 PD4       0.052200
     60 H21A         1.0110     5.4250     0.8880 hc         1 PD4       0.052200
     61 H22         -0.4130     6.6110     2.5890 hc         1 PD4       0.033367
     62 H22A        -0.3780     5.1810     3.6170 hc         1 PD4       0.033367
     63 H22B         1.1050     6.0740     3.2980 hc         1 PD4       0.033367
     64 H23        -10.1790    -1.9350     0.7200 h1         1 PD4       0.047367
     65 H23A        -8.9020    -3.0900     0.2820 h1         1 PD4       0.047367
     66 H23B        -8.8640    -2.2860     1.8610 h1         1 PD4       0.047367
@<TRIPOS>BOND
     1     1     2 ar  
     2     1     6 ar  
     3     1    21 1   
     4     2     3 ar  
     5     2    35 1   
     6     3     4 ar  
     7     3    36 1   
     8     4     5 ar  
     9     4     7 1   
    10     5     6 ar  
    11     5    10 1   
    12     7     8 2   
    13     8     9 1   
    14     8    12 1   
    15     9    10 1   
    16     9    11 2   
    17    10    27 1   
    18    12    13 1   
    19    12    37 1   
    20    13    14 1   
    21    13    38 1   
    22    13    39 1   
    23    14    15 1   
    24    14    40 1   
    25    14    41 1   
    26    15    16 1   
    27    15    20 1   
    28    16    17 1   
    29    16    42 1   
    30    16    43 1   
    31    17    18 1   
    32    17    44 1   
    33    17    45 1   
    34    18    19 1   
    35    19    20 1   
    36    19    46 1   
    37    19    47 1   
    38    20    48 1   
    39    20    49 1   
    40    21    22 ar  
    41    21    26 ar  
    42    22    23 ar  
    43    22    50 1   
    44    23    24 ar  
    45    23    51 1   
    46    24    25 ar  
    47    24    28 1   
    48    25    26 ar  
    49    26    52 1   
    50    27    29 1   
    51    27    53 1   
    52    27    54 1   
    53    28    34 1   
    54    29    30 1   
    55    29    55 1   
    56    29    56 1   
    57    30    31 1   
    58    31    32 1   
    59    31    57 1   
    60    31    58 1   
    61    32    33 1   
    62    32    59 1   
    63    32    60 1   
    64    33    61 1   
    65    33    62 1   
    66    33    63 1   
    67    34    64 1   
    68    34    65 1   
    69    34    66 1   
@<TRIPOS>SUBSTRUCTURE
     1 PD4         1 TEMP              0 ****  ****    0 ROOT
