@<TRIPOS>MOLECULE
PD5
   53    56     1     0     0
SMALL
bcc


@<TRIPOS>ATOM
      1 C4           6.4440     0.6890    -0.1140 ca         1 PD5       0.485800
      2 C5           5.1250     1.1000     0.1070 ca         1 PD5      -0.511500
      3 C6           4.9700     2.4510     0.4960 ca         1 PD5       0.784200
      4 N1           6.0510     3.2340     0.5400 nb         1 PD5      -0.839000
      5 N3           7.5330     1.4630    -0.0570 nb         1 PD5      -0.761000
      6 CAA          7.6250    -2.5860     0.4240 c3         1 PD5      -0.104100
      7 CAB          7.3850    -2.1240    -2.0500 c3         1 PD5      -0.104100
      8 NBF          6.4010    -0.6280    -0.3790 na         1 PD5       0.012200
      9 NAS          5.1440    -1.0890    -0.3530 nc         1 PD5      -0.522100
     10 C2           7.2410     2.7070     0.2570 ca         1 PD5       0.722900
     11 NAC          3.7970     2.9970     0.8250 nv         1 PD5      -0.955500
     12 CBB          4.3510    -0.0810    -0.0710 cd         1 PD5       0.435500
     13 CAZ          2.9030    -0.2820     0.0210 ca         1 PD5      -0.120900
     14 CAO          2.0050     0.6360    -0.5190 ca         1 PD5      -0.087000
     15 CAM          0.6340     0.4460    -0.4470 ca         1 PD5      -0.166500
     16 CAN          2.3830    -1.4300     0.6180 ca         1 PD5      -0.087000
     17 CAL          1.0190    -1.6290     0.6990 ca         1 PD5      -0.166500
     18 CAX          0.1230    -0.6920     0.1780 ca         1 PD5       0.086600
     19 NAT         -1.2370    -0.9840     0.2770 ns         1 PD5      -0.489100
     20 CAV         -2.2720    -0.0880     0.2860 c          1 PD5       0.803100
     21 OAD         -2.1280     1.1160     0.2000 o          1 PD5      -0.600100
     22 NAU         -3.4900    -0.7070     0.4090 ns         1 PD5      -0.491100
     23 CAY         -4.7430    -0.0980     0.4440 ca         1 PD5       0.081600
     24 CAP         -5.8370    -0.8850     0.0810 ca         1 PD5      -0.142000
     25 CAJ         -4.9630     1.2170     0.8570 ca         1 PD5      -0.116000
     26 CAH         -6.2540     1.7190     0.8900 ca         1 PD5      -0.109000
     27 CAK         -7.3440     0.9420     0.5300 ca         1 PD5      -0.104000
     28 CBA         -7.1220    -0.3680     0.1270 ca         1 PD5      -0.166300
     29 CBG         -8.2830    -1.2500    -0.2150 c3         1 PD5       0.720200
     30 FAF         -8.7600    -1.8780     0.8710 f          1 PD5      -0.234633
     31 FAG         -9.3030    -0.5610    -0.7380 f          1 PD5      -0.234633
     32 FAE         -7.9600    -2.2010    -1.0980 f          1 PD5      -0.234633
     33 HAA          6.7560    -3.2440     0.4140 hc         1 PD5       0.048033
     34 HAAA         8.5120    -3.1960     0.2580 hc         1 PD5       0.048033
     35 HAAB         7.7060    -2.1360     1.4140 hc         1 PD5       0.048033
     36 HBE          8.4000    -0.8850    -0.6260 h1         1 PD5       0.083700
     37 HAB          6.5060    -2.7660    -2.1200 hc         1 PD5       0.048033
     38 HABA         7.3100    -1.3480    -2.8120 hc         1 PD5       0.048033
     39 HABB         8.2630    -2.7300    -2.2720 hc         1 PD5       0.048033
     40 H2           8.0770     3.3970     0.3070 h5         1 PD5       0.045100
     41 HNAC         2.9750     2.4350     0.9650 hn         1 PD5       0.447300
     42 HNAA         3.7830     3.9340     1.1940 hn         1 PD5       0.447300
     43 HAO          2.3720     1.5110    -1.0420 ha         1 PD5       0.145000
     44 HAM         -0.0180     1.1770    -0.8980 ha         1 PD5       0.146500
     45 HAN          3.0500    -2.1690     1.0430 ha         1 PD5       0.145000
     46 HAL          0.6410    -2.5230     1.1820 ha         1 PD5       0.146500
     47 HNAT        -1.4470    -1.9420     0.5150 hn         1 PD5       0.316500
     48 HNAU        -3.5100    -1.7110     0.3090 hn         1 PD5       0.317500
     49 HAP         -5.6660    -1.9060    -0.2390 ha         1 PD5       0.143000
     50 HAJ         -4.1440     1.8490     1.1590 ha         1 PD5       0.167000
     51 HAH         -6.4120     2.7390     1.2120 ha         1 PD5       0.142000
     52 HAK         -8.3400     1.3600     0.5720 ha         1 PD5       0.152000
     53 CBE          7.5160    -1.5220    -0.6590 c3         1 PD5       0.082000
@<TRIPOS>BOND
     1     1     2 ar  
     2     1     5 ar  
     3     1     8 1   
     4     2     3 ar  
     5     2    12 1   
     6     3     4 ar  
     7     3    11 1   
     8     4    10 ar  
     9     5    10 ar  
    10     6    33 1   
    11     6    34 1   
    12     6    35 1   
    13     6    53 1   
    14     7    37 1   
    15     7    38 1   
    16     7    39 1   
    17     7    53 1   
    18     8     9 1   
    19     8    53 1   
    20     9    12 2   
    21    10    40 1   
    22    11    41 1   
    23    11    42 1   
    24    12    13 1   
    25    13    14 ar  
    26    13    16 ar  
    27    14    15 ar  
    28    14    43 1   
    29    15    18 ar  
    30    15    44 1   
    31    16    17 ar  
    32    16    45 1   
    33    17    18 ar  
    34    17    46 1   
    35    18    19 1   
    36    19    20 1   
    37    19    47 1   
    38    20    21 2   
    39    20    22 1   
    40    22    23 1   
    41    22    48 1   
    42    23    24 ar  
    43    23    25 ar  
    44    24    28 ar  
    45    24    49 1   
    46    25    26 ar  
    47    25    50 1   
    48    26    27 ar  
    49    26    51 1   
    50    27    28 ar  
    51    27    52 1   
    52    28    29 1   
    53    29    30 1   
    54    29    31 1   
    55    29    32 1   
    56    36    53 1   
@<TRIPOS>SUBSTRUCTURE
     1 PD5         1 TEMP              0 ****  ****    0 ROOT
