@<TRIPOS>MOLECULE
PD5
   53    56     1     0     0
SMALL
No Charge or Current Charge


@<TRIPOS>ATOM
      1 C4           6.5480     0.5740     0.0370 ca         1 PD5       0.157500
      2 C5           5.2740     0.9330     0.3760 ca         1 PD5      -0.380900
      3 C6           5.0540     2.1340     1.0410 ca         1 PD5       0.455900
      4 N1           6.0710     2.9670     1.2990 nb         1 PD5      -0.313000
      5 N3           7.5950     1.3860     0.2820 nb         1 PD5      -0.235000
      6 CAA          7.9120    -2.6930    -0.0250 c3         1 PD5      -0.104100
      7 CAB          7.4920    -1.9260    -2.4300 c3         1 PD5      -0.104100
      8 NBF          6.4630    -0.7050    -0.4950 na         1 PD5      -0.017100
      9 NAS          5.1510    -1.1910    -0.4970 nc         1 PD5      -0.522100
     10 C2           7.2970     2.5570     0.8930 ca         1 PD5       0.196900
     11 NAC          3.8520     2.5240     1.5140 nv         1 PD5      -1.065900
     12 CBB          4.4300    -0.1780    -0.0010 cd         1 PD5       0.435500
     13 CAZ          2.9620    -0.2470     0.1090 ca         1 PD5      -0.120900
     14 CAO          2.1530     0.7990    -0.3770 ca         1 PD5      -0.069000
     15 CAM          0.7510     0.7090    -0.3180 ca         1 PD5      -0.148500
     16 CAN          2.3410    -1.4130     0.5960 ca         1 PD5      -0.069000
     17 CAL          0.9400    -1.5030     0.6560 ca         1 PD5      -0.148500
     18 CAX          0.1300    -0.4430     0.2120 ca         1 PD5      -0.006000
     19 NAT         -1.2800    -0.6090     0.3000 ns         1 PD5      -0.163000
     20 CAV         -2.3400     0.2510     0.0480 c          1 PD5       0.669100
     21 OAD         -2.2160     1.4170    -0.3080 o          1 PD5      -0.600100
     22 NAU         -3.5610    -0.3760     0.2590 ns         1 PD5      -0.165000
     23 CAY         -4.9060     0.0750     0.1370 ca         1 PD5      -0.011000
     24 CAP         -5.9270    -0.8410     0.4550 ca         1 PD5      -0.124000
     25 CAJ         -5.2600     1.3760    -0.2820 ca         1 PD5      -0.098000
     26 CAH         -6.6120     1.7450    -0.3720 ca         1 PD5      -0.091000
     27 CAK         -7.6230     0.8250    -0.0510 ca         1 PD5      -0.086000
     28 CBA         -7.2900    -0.4840     0.3590 ca         1 PD5      -0.166300
     29 CBG         -8.3880    -1.4940     0.7210 c3         1 PD5       0.356300
     30 FAF         -8.6590    -1.4710     2.0450 f          1 PD5      -0.113333
     31 FAG         -9.5510    -1.2480     0.0760 f          1 PD5      -0.113333
     32 FAE         -8.0380    -2.7640     0.4120 f          1 PD5      -0.113333
     33 HAA          7.0780    -3.4050    -0.0430 hc         1 PD5       0.048033
     34 HAAA         8.8220    -3.2190    -0.3380 hc         1 PD5       0.048033
     35 HAAB         8.0520    -2.3540     1.0080 hc         1 PD5       0.048033
     36 HBE          8.5090    -0.8340    -0.8990 h1         1 PD5       0.083700
     37 HAB          6.6450    -2.6100    -2.5600 hc         1 PD5       0.048033
     38 HABA         7.3310    -1.0530    -3.0730 hc         1 PD5       0.048033
     39 HABB         8.4010    -2.4360    -2.7700 hc         1 PD5       0.048033
     40 H2           8.1300     3.2280     1.0970 h5         1 PD5       0.045100
     41 HNAC         3.1150     1.8290     1.5850 hn         1 PD5       0.502500
     42 HNAA         3.8280     3.2870     2.1850 hn         1 PD5       0.502500
     43 HAO          2.6120     1.6830    -0.8160 ha         1 PD5       0.127000
     44 HAM          0.1690     1.5400    -0.7020 ha         1 PD5       0.128500
     45 HAN          2.9480    -2.2490     0.9400 ha         1 PD5       0.127000
     46 HAL          0.4830    -2.4080     1.0510 ha         1 PD5       0.128500
     47 HNAT        -1.5590    -1.5320     0.6040 hn         1 PD5       0.150000
     48 HNAU        -3.4840    -1.3400     0.5550 hn         1 PD5       0.151000
     49 HAP         -5.6560    -1.8430     0.7840 ha         1 PD5       0.125000
     50 HAJ         -4.5090     2.1160    -0.5390 ha         1 PD5       0.149000
     51 HAH         -6.8790     2.7510    -0.6900 ha         1 PD5       0.124000
     52 HAK         -8.6630     1.1360    -0.1220 ha         1 PD5       0.134000
     53 CBE          7.6310    -1.4920    -0.9540 c3         1 PD5       0.111300
@<TRIPOS>BOND
     1     1     2 ar  
     2     1     5 ar  
     3     1     8 1   
     4     2     3 ar  
     5     2    12 1   
     6     3     4 ar  
     7     3    11 1   
     8     4    10 ar  
     9     5    10 ar  
    10     6    33 1   
    11     6    34 1   
    12     6    35 1   
    13     6    53 1   
    14     7    37 1   
    15     7    38 1   
    16     7    39 1   
    17     7    53 1   
    18     8     9 1   
    19     8    53 1   
    20     9    12 2   
    21    10    40 1   
    22    11    41 1   
    23    11    42 1   
    24    12    13 1   
    25    13    14 ar  
    26    13    16 ar  
    27    14    15 ar  
    28    14    43 1   
    29    15    18 ar  
    30    15    44 1   
    31    16    17 ar  
    32    16    45 1   
    33    17    18 ar  
    34    17    46 1   
    35    18    19 1   
    36    19    20 1   
    37    19    47 1   
    38    20    21 2   
    39    20    22 1   
    40    22    23 1   
    41    22    48 1   
    42    23    24 ar  
    43    23    25 ar  
    44    24    28 ar  
    45    24    49 1   
    46    25    26 ar  
    47    25    50 1   
    48    26    27 ar  
    49    26    51 1   
    50    27    28 ar  
    51    27    52 1   
    52    28    29 1   
    53    29    30 1   
    54    29    31 1   
    55    29    32 1   
    56    36    53 1   
@<TRIPOS>SUBSTRUCTURE
     1 PD5         1 TEMP              0 ****  ****    0 ROOT
