@<TRIPOS>MOLECULE
PD6
   41    43     1     0     0
SMALL
bcc


@<TRIPOS>ATOM
      1 N3          20.1630    -6.7010    11.9380 na         1 PD6      -0.506800
      2 C4          18.2370    -5.2400    11.8370 ca         1 PD6      -0.387300
      3 C5          18.1430    -5.0980    14.5720 ca         1 PD6       0.767200
      4 C6          20.1770    -6.5820    14.7790 c          1 PD6       0.608900
      5 C7          21.0920    -7.3590    12.6720 cc         1 PD6       0.102000
      6 C8          20.2850    -6.8010    10.4790 c3         1 PD6       0.216800
      7 C15         16.2730    -3.7210    11.7940 cp         1 PD6      -0.155500
      8 C17         15.0310    -3.4790    12.3830 ca         1 PD6      -0.095500
      9 C20         14.0540    -2.7680    11.7030 ca         1 PD6      -0.139500
     10 C21         15.5450    -2.4970     9.8400 ca         1 PD6      -0.139500
     11 C22         14.3070    -2.2740    10.4290 ca         1 PD6      -0.115000
     12 C1          19.2040    -5.9470    12.5680 ca         1 PD6       0.266600
     13 C2          19.1850    -5.8830    13.9750 ca         1 PD6      -0.406900
     14 C9          17.3020    -4.4940    12.5250 cp         1 PD6       0.582800
     15 N10         17.2480    -4.4290    13.8550 nb         1 PD6      -0.809000
     16 N11         18.0280    -5.0080    15.9020 nv         1 PD6      -0.960500
     17 C12         21.1400    -7.3330    14.0200 cd         1 PD6      -0.318200
     18 O13         20.2100    -6.5470    16.0190 o          1 PD6      -0.616100
     19 C14         21.3390    -5.8660     9.9010 c3         1 PD6      -0.097400
     20 C16         21.0900    -4.3800    10.1250 c3         1 PD6      -0.075400
     21 C18         16.5190    -3.2160    10.5170 ca         1 PD6      -0.095500
     22 C19         22.1800    -3.5220     9.4960 c3         1 PD6      -0.090100
     23 H4          18.1970    -5.2820    10.7620 ha         1 PD6       0.144000
     24 H7          21.8140    -7.9260    12.1000 h4         1 PD6       0.146000
     25 H8          20.5470    -7.8340    10.2530 h1         1 PD6       0.062200
     26 H8A         19.3160    -6.6320    10.0210 h1         1 PD6       0.062200
     27 H17         14.8290    -3.8590    13.3750 ha         1 PD6       0.139000
     28 H20         13.0920    -2.6000    12.1680 ha         1 PD6       0.131000
     29 H21         15.7570    -2.1040     8.8540 ha         1 PD6       0.131000
     30 H22         13.5460    -1.7140     9.9020 ha         1 PD6       0.130000
     31 HN11        18.7270    -5.4330    16.4920 hn         1 PD6       0.462300
     32 HN1A        17.3260    -4.4000    16.2870 hn         1 PD6       0.462300
     33 H12         21.9110    -7.8880    14.5360 ha         1 PD6       0.160000
     34 H14         22.3200    -6.1370    10.3050 hc         1 PD6       0.049200
     35 H14A        21.3890    -6.0720     8.8270 hc         1 PD6       0.049200
     36 H16         20.1200    -4.1000     9.7040 hc         1 PD6       0.046700
     37 H16A        21.0330    -4.1650    11.1950 hc         1 PD6       0.046700
     38 H18         17.4860    -3.3600    10.0510 ha         1 PD6       0.139000
     39 H19         22.2250    -3.6710     8.4160 hc         1 PD6       0.034367
     40 H19A        22.0060    -2.4620     9.6780 hc         1 PD6       0.034367
     41 H19B        23.1610    -3.7710     9.9050 hc         1 PD6       0.034367
@<TRIPOS>BOND
     1     1     5 1   
     2     1     6 1   
     3     1    12 1   
     4     2    12 ar  
     5     2    14 ar  
     6     2    23 1   
     7     3    13 ar  
     8     3    15 ar  
     9     3    16 1   
    10     4    13 1   
    11     4    17 1   
    12     4    18 2   
    13     5    17 2   
    14     5    24 1   
    15     6    19 1   
    16     6    25 1   
    17     6    26 1   
    18     7     8 ar  
    19     7    14 1   
    20     7    21 ar  
    21     8     9 ar  
    22     8    27 1   
    23     9    11 ar  
    24     9    28 1   
    25    10    11 ar  
    26    10    21 ar  
    27    10    29 1   
    28    11    30 1   
    29    12    13 ar  
    30    14    15 ar  
    31    16    31 1   
    32    16    32 1   
    33    17    33 1   
    34    19    20 1   
    35    19    34 1   
    36    19    35 1   
    37    20    22 1   
    38    20    36 1   
    39    20    37 1   
    40    21    38 1   
    41    22    39 1   
    42    22    40 1   
    43    22    41 1   
@<TRIPOS>SUBSTRUCTURE
     1 PD6         1 TEMP              0 ****  ****    0 ROOT
