@<TRIPOS>MOLECULE
PD6
   41    43     1     0     0
SMALL
No Charge or Current Charge


@<TRIPOS>ATOM
      1 N3          20.3510    -6.6620    12.0580 na         1 PD6      -0.645200
      2 C4          18.3550    -5.2040    11.9600 ca         1 PD6      -0.304000
      3 C5          18.0120    -5.3540    14.6090 ca         1 PD6       0.701900
      4 C6          20.1080    -6.6840    14.8850 c          1 PD6       0.608900
      5 C7          21.4120    -7.2210    12.7940 cc         1 PD6       0.052000
      6 C8          20.3410    -6.8550    10.5770 c3         1 PD6       0.216800
      7 C15         16.2990    -3.6940    11.8670 cp         1 PD6      -0.156500
      8 C17         14.9820    -3.4960    12.3680 ca         1 PD6      -0.077500
      9 C20         14.0470    -2.7100    11.6740 ca         1 PD6      -0.121500
     10 C21         15.6960    -2.2680     9.9490 ca         1 PD6      -0.121500
     11 C22         14.4020    -2.0960    10.4630 ca         1 PD6      -0.097000
     12 C1          19.2830    -5.9680    12.6900 ca         1 PD6       0.405000
     13 C2          19.1060    -6.0050    14.0670 ca         1 PD6      -0.341600
     14 C9          17.3000    -4.5390    12.6110 cp         1 PD6       0.517500
     15 N10         17.1340    -4.6470    13.9380 nb         1 PD6      -0.809000
     16 N11         17.6850    -5.3220    15.8910 nv         1 PD6      -1.070900
     17 C12         21.2370    -7.2350    14.1580 cd         1 PD6      -0.368200
     18 O13         20.0440    -6.7640    16.1050 o          1 PD6      -0.616100
     19 C14         21.3270    -5.9300     9.8190 c3         1 PD6      -0.097400
     20 C16         21.0040    -4.4190     9.8900 c3         1 PD6      -0.075400
     21 C18         16.6330    -3.0550    10.6410 ca         1 PD6      -0.077500
     22 C19         22.0420    -3.5480     9.1560 c3         1 PD6      -0.090100
     23 H4          18.4220    -5.1050    10.8890 ha         1 PD6       0.126000
     24 H7          22.2590    -7.6580    12.2640 h4         1 PD6       0.196000
     25 H8          20.6500    -7.8900    10.3800 h1         1 PD6       0.062200
     26 H8A         19.3330    -6.7760    10.1540 h1         1 PD6       0.062200
     27 H17         14.6780    -3.9640    13.3020 ha         1 PD6       0.121000
     28 H20         13.0440    -2.5770    12.0760 ha         1 PD6       0.113000
     29 H21         15.9770    -1.7870     9.0150 ha         1 PD6       0.113000
     30 H22         13.6780    -1.4870     9.9260 ha         1 PD6       0.112000
     31 HN11        18.4260    -5.6100    16.5250 hn         1 PD6       0.517500
     32 HN1A        17.1180    -4.5310    16.1610 hn         1 PD6       0.517500
     33 H12         21.9810    -7.6910    14.8000 ha         1 PD6       0.210000
     34 H14         22.3390    -6.0990    10.2070 hc         1 PD6       0.049200
     35 H14A        21.3440    -6.2380     8.7660 hc         1 PD6       0.049200
     36 H16         20.0180    -4.2360     9.4460 hc         1 PD6       0.046700
     37 H16A        20.9540    -4.1000    10.9380 hc         1 PD6       0.046700
     38 H18         17.6330    -3.1500    10.2250 ha         1 PD6       0.121000
     39 H19         22.0940    -3.8170     8.0940 hc         1 PD6       0.034367
     40 H19A        21.7700    -2.4880     9.2280 hc         1 PD6       0.034367
     41 H19B        23.0380    -3.6770     9.5960 hc         1 PD6       0.034367
@<TRIPOS>BOND
     1     1     5 1   
     2     1     6 1   
     3     1    12 1   
     4     2    12 ar  
     5     2    14 ar  
     6     2    23 1   
     7     3    13 ar  
     8     3    15 ar  
     9     3    16 1   
    10     4    13 1   
    11     4    17 1   
    12     4    18 2   
    13     5    17 2   
    14     5    24 1   
    15     6    19 1   
    16     6    25 1   
    17     6    26 1   
    18     7     8 ar  
    19     7    14 1   
    20     7    21 ar  
    21     8     9 ar  
    22     8    27 1   
    23     9    11 ar  
    24     9    28 1   
    25    10    11 ar  
    26    10    21 ar  
    27    10    29 1   
    28    11    30 1   
    29    12    13 ar  
    30    14    15 ar  
    31    16    31 1   
    32    16    32 1   
    33    17    33 1   
    34    19    20 1   
    35    19    34 1   
    36    19    35 1   
    37    20    22 1   
    38    20    36 1   
    39    20    37 1   
    40    21    38 1   
    41    22    39 1   
    42    22    40 1   
    43    22    41 1   
@<TRIPOS>SUBSTRUCTURE
     1 PD6         1 TEMP              0 ****  ****    0 ROOT
