@<TRIPOS>MOLECULE
PD9
   37    37     1     0     0
SMALL
bcc


@<TRIPOS>ATOM
      1 C4          -3.1000     0.6350    -0.2800 ca         1 PD9      -0.260200
      2 C5          -1.7560     0.9670    -0.1370 ca         1 PD9      -0.046000
      3 C6          -3.5760    -0.6410     0.0420 ca         1 PD9       0.159100
      4 C10         -1.3190    -1.2570     0.6580 ca         1 PD9      -0.075000
      5 C11         -0.8490     0.0270     0.3240 ca         1 PD9      -0.086800
      6 C12          0.5300     0.4670     0.4290 ce         1 PD9      -0.000200
      7 C14          1.7280    -1.5880     1.0050 ch         1 PD9       0.197500
      8 N15          1.8230    -2.7040     1.2820 n1         1 PD9      -0.356800
      9 C16          2.9540     0.5820     0.7850 c          1 PD9       0.683300
     10 O17          2.9660     1.6090     1.4450 o          1 PD9      -0.587100
     11 C19          5.2930     0.8230     0.2830 c3         1 PD9       0.098500
     12 C20          3.9900    -0.9000    -0.9170 c3         1 PD9       0.098500
     13 C21          5.4300     1.9820    -0.6930 c3         1 PD9      -0.113100
     14 O21         -5.1850     1.3460    -0.8840 o          1 PD9      -0.214000
     15 N20         -4.0050     1.6430    -0.7680 no         1 PD9       0.325200
     16 O22         -3.5760     2.7320    -1.0430 o          1 PD9      -0.214000
     17 O7          -4.8250    -1.0620    -0.0530 oh         1 PD9      -0.500100
     18 C8          -2.6450    -1.5890     0.5260 ca         1 PD9       0.099100
     19 O9          -3.0470    -2.8210     0.8610 oh         1 PD9      -0.482100
     20 C13          1.6670    -0.2040     0.6930 cf         1 PD9      -0.075900
     21 N18          4.0330     0.0990     0.1440 n          1 PD9      -0.464800
     22 C22          4.7450    -2.1770    -0.5900 c3         1 PD9      -0.113100
     23 H1          -1.4200     1.9610    -0.3950 ha         1 PD9       0.173000
     24 H2          -0.6560    -2.0200     1.0380 ha         1 PD9       0.172000
     25 H3           0.6620     1.5250     0.2340 ha         1 PD9       0.150000
     26 H4           6.0990     0.1060     0.1260 h1         1 PD9       0.053200
     27 H5           5.3870     1.1750     1.3090 h1         1 PD9       0.053200
     28 H6           2.9540    -1.1250    -1.1670 h1         1 PD9       0.053200
     29 H7           4.4100    -0.4460    -1.8190 h1         1 PD9       0.053200
     30 H8           4.6610     2.7360    -0.5260 hc         1 PD9       0.044700
     31 H9           6.4020     2.4590    -0.5660 hc         1 PD9       0.044700
     32 H10          5.3620     1.6460    -1.7280 hc         1 PD9       0.044700
     33 H11         -5.3860    -0.3340    -0.3850 ho         1 PD9       0.493000
     34 H12         -4.0010    -2.9230     0.7550 ho         1 PD9       0.454000
     35 H13          4.6620    -2.8700    -1.4260 hc         1 PD9       0.044700
     36 H14          5.8070    -1.9920    -0.4260 hc         1 PD9       0.044700
     37 H15          4.3460    -2.6660     0.2970 hc         1 PD9       0.044700
@<TRIPOS>BOND
     1     1     2 ar  
     2     1     3 ar  
     3     1    15 1   
     4     2     5 ar  
     5     2    23 1   
     6     3    17 1   
     7     3    18 ar  
     8     4     5 ar  
     9     4    18 ar  
    10     4    24 1   
    11     5     6 1   
    12     6    20 2   
    13     6    25 1   
    14     7     8 3   
    15     7    20 1   
    16     9    10 2   
    17     9    20 1   
    18     9    21 1   
    19    11    13 1   
    20    11    21 1   
    21    11    26 1   
    22    11    27 1   
    23    12    21 1   
    24    12    22 1   
    25    12    28 1   
    26    12    29 1   
    27    13    30 1   
    28    13    31 1   
    29    13    32 1   
    30    14    15 1   
    31    15    16 1   
    32    17    33 1   
    33    18    19 1   
    34    19    34 1   
    35    22    35 1   
    36    22    36 1   
    37    22    37 1   
@<TRIPOS>SUBSTRUCTURE
     1 PD9         1 TEMP              0 ****  ****    0 ROOT
