@<TRIPOS>MOLECULE
PD9
   37    37     1     0     0
SMALL
No Charge or Current Charge


@<TRIPOS>ATOM
      1 C4          -3.3140     0.5020    -0.3230 ca         1 PD9      -0.260200
      2 C5          -1.9560     0.9030    -0.2290 ca         1 PD9      -0.028000
      3 C6          -3.7080    -0.7070     0.3090 ca         1 PD9       0.159100
      4 C10         -1.4220    -1.0650     1.0950 ca         1 PD9      -0.057000
      5 C11         -1.0100     0.1230     0.4640 ca         1 PD9      -0.086800
      6 C12          0.4050     0.5930     0.5460 ce         1 PD9      -0.050200
      7 C14          1.5070    -1.4550    -0.1070 ch         1 PD9       0.286700
      8 N15          1.3920    -2.5720    -0.4270 n1         1 PD9      -0.446000
      9 C16          2.9050     0.6160     0.4860 c          1 PD9       0.616300
     10 O17          2.9060     1.6650     1.1230 o          1 PD9      -0.587100
     11 C19          5.4190     0.8260     0.4150 c3         1 PD9       0.098500
     12 C20          4.3340    -0.8730    -1.0810 c3         1 PD9       0.098500
     13 C21          5.8570     1.9650    -0.5260 c3         1 PD9      -0.113100
     14 O21         -5.4580     1.0110    -1.1660 o          1 PD9      -0.404000
     15 N20         -4.2760     1.3720    -1.0840 no         1 PD9       0.705200
     16 O22         -3.8460     2.4120    -1.5960 o          1 PD9      -0.404000
     17 O7          -5.0000    -1.1660     0.2680 oh         1 PD9      -0.539100
     18 C8          -2.7580    -1.4780     1.0150 ca         1 PD9       0.099100
     19 O9          -3.1480    -2.6370     1.6310 oh         1 PD9      -0.521100
     20 C13          1.5720    -0.0850     0.2880 cf         1 PD9      -0.075900
     21 N18          4.1650     0.1510    -0.0180 n          1 PD9      -0.397800
     22 C22          4.7950    -2.2440    -0.5450 c3         1 PD9      -0.113100
     23 H1          -1.6170     1.8240    -0.7010 ha         1 PD9       0.155000
     24 H2          -0.7120    -1.6660     1.6580 ha         1 PD9       0.154000
     25 H3           0.4740     1.6450     0.8290 ha         1 PD9       0.200000
     26 H4           6.2250     0.0830     0.4600 h1         1 PD9       0.053200
     27 H5           5.3020     1.2200     1.4330 h1         1 PD9       0.053200
     28 H6           3.4220    -0.9720    -1.6790 h1         1 PD9       0.053200
     29 H7           5.0990    -0.5200    -1.7840 h1         1 PD9       0.053200
     30 H8           5.0800     2.7360    -0.5860 hc         1 PD9       0.044700
     31 H9           6.7760     2.4310    -0.1540 hc         1 PD9       0.044700
     32 H10          6.0500     1.5890    -1.5380 hc         1 PD9       0.044700
     33 H11         -5.5310    -0.5190    -0.2570 ho         1 PD9       0.532000
     34 H12         -4.1110    -2.7360     1.4530 ho         1 PD9       0.493000
     35 H13          4.8300    -2.9770    -1.3590 hc         1 PD9       0.044700
     36 H14          5.7990    -2.1720    -0.1100 hc         1 PD9       0.044700
     37 H15          4.1180    -2.6190     0.2300 hc         1 PD9       0.044700
@<TRIPOS>BOND
     1     1     2 ar  
     2     1     3 ar  
     3     1    15 1   
     4     2     5 ar  
     5     2    23 1   
     6     3    17 1   
     7     3    18 ar  
     8     4     5 ar  
     9     4    18 ar  
    10     4    24 1   
    11     5     6 1   
    12     6    20 2   
    13     6    25 1   
    14     7     8 3   
    15     7    20 1   
    16     9    10 2   
    17     9    20 1   
    18     9    21 1   
    19    11    13 1   
    20    11    21 1   
    21    11    26 1   
    22    11    27 1   
    23    12    21 1   
    24    12    22 1   
    25    12    28 1   
    26    12    29 1   
    27    13    30 1   
    28    13    31 1   
    29    13    32 1   
    30    14    15 1   
    31    15    16 1   
    32    17    33 1   
    33    18    19 1   
    34    19    34 1   
    35    22    35 1   
    36    22    36 1   
    37    22    37 1   
@<TRIPOS>SUBSTRUCTURE
     1 PD9         1 TEMP              0 ****  ****    0 ROOT
