@<TRIPOS>MOLECULE
PDB
   36    38     1     0     0
SMALL
No Charge or Current Charge


@<TRIPOS>ATOM
      1 C2          -3.0450     1.3310     0.4010 ca         1 PDB       0.132000
      2 C3          -3.5570     2.6250     0.2020 ca         1 PDB      -0.100000
      3 C4          -3.7460     3.1200    -1.1000 ca         1 PDB      -0.086000
      4 C5          -3.4240     2.3180    -2.2070 ca         1 PDB      -0.105000
      5 F5           4.5510     2.1920     0.9020 f          1 PDB      -0.116667
      6 C6          -2.9120     1.0230    -2.0130 ca         1 PDB      -0.096000
      7 F6           5.8260     0.9560    -0.3740 f          1 PDB      -0.116667
      8 C7          -2.7150     0.5220    -0.7100 ca         1 PDB      -0.003200
      9 F7           5.3440     0.2950     1.6470 f          1 PDB      -0.116667
     10 N8          -2.1980    -0.7610    -0.5380 na         1 PDB       0.188000
     11 N9          -2.9300    -1.8870    -0.8660 nc         1 PDB      -0.487800
     12 C10         -2.0580    -2.8610    -0.5720 cd         1 PDB       0.328900
     13 C11         -0.9480    -1.0610    -0.0380 cc         1 PDB       0.263000
     14 C12         -0.8180    -2.3740    -0.0860 cd         1 PDB      -0.333600
     15 N13          0.1110    -0.2220     0.2570 na         1 PDB      -0.899200
     16 C14          1.2980    -0.8140     0.6820 cc         1 PDB       0.682200
     17 N15          1.4000    -2.1310     0.6820 nd         1 PDB      -0.710100
     18 C16          0.3990    -3.0160     0.2980 c          1 PDB       0.759100
     19 O17          0.5770    -4.2220     0.2970 o          1 PDB      -0.525100
     20 C18          2.4600     0.0470     1.0900 c3         1 PDB      -0.118700
     21 C19          3.5850     0.1770     0.0130 c3         1 PDB      -0.118700
     22 C20          3.0490     0.8160    -1.2990 c3         1 PDB      -0.094100
     23 C21          4.8430     0.9170     0.5550 c3         1 PDB       0.297000
     24 Cl1         -2.8410     0.7490     2.0550 cl         1 PDB      -0.156000
     25 H1          -3.8110     3.2440     1.0600 ha         1 PDB       0.139000
     26 H2          -4.1430     4.1220    -1.2500 ha         1 PDB       0.127000
     27 H3          -3.5720     2.6990    -3.2160 ha         1 PDB       0.128000
     28 H4          -2.6640     0.4070    -2.8760 ha         1 PDB       0.133000
     29 H5          -2.3430    -3.8920    -0.7430 h4         1 PDB       0.060100
     30 H6           0.0330     0.7880     0.2090 hn         1 PDB       0.517000
     31 H7           2.0990     1.0460     1.3620 hc         1 PDB       0.074200
     32 H8           2.8830    -0.3750     2.0090 hc         1 PDB       0.074200
     33 H9           3.9140    -0.8410    -0.2380 hc         1 PDB       0.120700
     34 H10          2.2320     0.2200    -1.7250 hc         1 PDB       0.053033
     35 H11          2.6730     1.8300    -1.1170 hc         1 PDB       0.053033
     36 H12          3.8370     0.8760    -2.0590 hc         1 PDB       0.053033
@<TRIPOS>BOND
     1     1     2 ar  
     2     1     8 ar  
     3     1    24 1   
     4     2     3 ar  
     5     2    25 1   
     6     3     4 ar  
     7     3    26 1   
     8     4     6 ar  
     9     4    27 1   
    10     5    23 1   
    11     6     8 ar  
    12     6    28 1   
    13     7    23 1   
    14     8    10 1   
    15     9    23 1   
    16    10    11 1   
    17    10    13 1   
    18    11    12 2   
    19    12    14 1   
    20    12    29 1   
    21    13    14 2   
    22    13    15 1   
    23    14    18 1   
    24    15    16 1   
    25    15    30 1   
    26    16    17 2   
    27    16    20 1   
    28    17    18 1   
    29    18    19 2   
    30    20    21 1   
    31    20    31 1   
    32    20    32 1   
    33    21    22 1   
    34    21    23 1   
    35    21    33 1   
    36    22    34 1   
    37    22    35 1   
    38    22    36 1   
@<TRIPOS>SUBSTRUCTURE
     1 PDB         1 TEMP              0 ****  ****    0 ROOT
