@<TRIPOS>MOLECULE
PDB
   36    38     1     0     0
SMALL
bcc


@<TRIPOS>ATOM
      1 C2          -3.6960     1.0620     0.4930 ca         1 PDB       0.040400
      2 C3          -4.3160     2.2970     0.4050 ca         1 PDB      -0.118000
      3 C4          -4.1060     3.0880    -0.7160 ca         1 PDB      -0.104000
      4 C5          -3.2860     2.6510    -1.7460 ca         1 PDB      -0.123000
      5 F5           4.7080     2.1670     0.2670 f          1 PDB      -0.237967
      6 C6          -2.6780     1.4080    -1.6620 ca         1 PDB      -0.114000
      7 F6           6.0460     0.4830     0.2230 f          1 PDB      -0.237967
      8 C7          -2.8830     0.6120    -0.5450 ca         1 PDB      -0.003200
      9 F7           4.8450     0.8540     1.9660 f          1 PDB      -0.237967
     10 N8          -2.2430    -0.6420    -0.4520 na         1 PDB       0.137300
     11 N9          -2.9250    -1.8050    -0.5980 nc         1 PDB      -0.487800
     12 C10         -2.0500    -2.7630    -0.4350 cd         1 PDB       0.394200
     13 C11         -0.9510    -0.8800    -0.1920 cc         1 PDB       0.175300
     14 C12         -0.7610    -2.2430    -0.1720 cd         1 PDB      -0.398900
     15 N13          0.0610    -0.0090     0.0210 na         1 PDB      -0.705600
     16 C14          1.2890    -0.5390     0.2690 cc         1 PDB       0.682200
     17 N15          1.5380    -1.8040     0.3000 nd         1 PDB      -0.710100
     18 C16          0.5580    -2.7670     0.0840 c          1 PDB       0.759100
     19 O17          0.8360    -3.9540     0.1170 o          1 PDB      -0.525100
     20 C18          2.3690     0.4590     0.5650 c3         1 PDB      -0.118700
     21 C19          3.7360     0.0090     0.0460 c3         1 PDB      -0.118700
     22 C20          3.7780     0.0080    -1.4800 c3         1 PDB      -0.094100
     23 C21          4.8300     0.8780     0.6240 c3         1 PDB       0.660900
     24 CL1         -3.9150     0.0850     1.8940 cl         1 PDB      -0.064400
     25 H1          -4.9500     2.6430     1.2100 ha         1 PDB       0.157000
     26 H2          -4.5880     4.0540    -0.7780 ha         1 PDB       0.145000
     27 H3          -3.1250     3.2720    -2.6160 ha         1 PDB       0.146000
     28 H4          -2.0470     1.0450    -2.4630 ha         1 PDB       0.151000
     29 H5          -2.3510    -3.7960    -0.5120 h4         1 PDB       0.060100
     30 H6          -0.0730     0.9930     0.0000 hn         1 PDB       0.461800
     31 H7           2.1000     1.4280     0.1410 hc         1 PDB       0.074200
     32 H8           2.3780     0.5850     1.6520 hc         1 PDB       0.074200
     33 H9           3.9240    -1.0060     0.4070 hc         1 PDB       0.120700
     34 H10          3.0350    -0.6890    -1.8650 hc         1 PDB       0.053033
     35 H11          3.5540     0.9920    -1.8920 hc         1 PDB       0.053033
     36 H12          4.7450    -0.3140    -1.8630 hc         1 PDB       0.053033
@<TRIPOS>BOND
     1     1     2 ar  
     2     1     8 ar  
     3     1    24 1   
     4     2     3 ar  
     5     2    25 1   
     6     3     4 ar  
     7     3    26 1   
     8     4     6 ar  
     9     4    27 1   
    10     5    23 1   
    11     6     8 ar  
    12     6    28 1   
    13     7    23 1   
    14     8    10 1   
    15     9    23 1   
    16    10    11 1   
    17    10    13 1   
    18    11    12 2   
    19    12    14 1   
    20    12    29 1   
    21    13    14 2   
    22    13    15 1   
    23    14    18 1   
    24    15    16 1   
    25    15    30 1   
    26    16    17 2   
    27    16    20 1   
    28    17    18 1   
    29    18    19 2   
    30    20    21 1   
    31    20    31 1   
    32    20    32 1   
    33    21    22 1   
    34    21    23 1   
    35    21    33 1   
    36    22    34 1   
    37    22    35 1   
    38    22    36 1   
@<TRIPOS>SUBSTRUCTURE
     1 PDB         1 TEMP              0 ****  ****    0 ROOT
