@<TRIPOS>MOLECULE
PDC
   15    15     1     0     0
SMALL
bcc


@<TRIPOS>ATOM
      1 N1           0.4490     0.0130     0.0020 nb         1 PDC      -0.601000
      2 C2          -0.2160     0.0260     1.1530 ca         1 PDC       0.329300
      3 C3          -1.6080     0.0480     1.1970 ca         1 PDC      -0.256300
      4 C4          -2.3130     0.0500     0.0050 ca         1 PDC      -0.169000
      5 C5          -1.6110     0.0360    -1.1880 ca         1 PDC      -0.256300
      6 C6          -0.2190     0.0210    -1.1470 ca         1 PDC       0.329300
      7 C7           0.5970     0.0160     2.4500 c          1 PDC       0.823100
      8 O1          -0.0640     0.0860     3.5050 o          1 PDC      -0.836300
      9 O2           1.8320    -0.0610     2.3400 o          1 PDC      -0.836300
     10 C8           0.5910     0.0110    -2.4460 c          1 PDC       0.823100
     11 O3          -0.0740     0.0030    -3.5010 o          1 PDC      -0.836300
     12 O4           1.8280     0.0140    -2.3370 o          1 PDC      -0.836300
     13 H3          -2.1200     0.0580     2.1480 ha         1 PDC       0.124000
     14 H4          -3.3960     0.0630     0.0080 ha         1 PDC       0.075000
     15 H5          -2.1260     0.0380    -2.1380 ha         1 PDC       0.124000
@<TRIPOS>BOND
     1     1     2 ar  
     2     1     6 ar  
     3     2     3 ar  
     4     2     7 1   
     5     3     4 ar  
     6     3    13 1   
     7     4     5 ar  
     8     4    14 1   
     9     5     6 ar  
    10     5    15 1   
    11     6    10 1   
    12     7     8 1   
    13     7     9 1   
    14    10    11 1   
    15    10    12 1   
@<TRIPOS>SUBSTRUCTURE
     1 PDC         1 TEMP              0 ****  ****    0 ROOT
