@<TRIPOS>MOLECULE
PDC
   15    15     1     0     0
SMALL
No Charge or Current Charge


@<TRIPOS>ATOM
      1 N1           0.4840     0.0130     0.0020 nb         1 PDC      -0.601000
      2 C2          -0.1970     0.0260     1.1910 ca         1 PDC       0.264000
      3 C3          -1.6130     0.0470     1.2080 ca         1 PDC      -0.173000
      4 C4          -2.3320     0.0540     0.0060 ca         1 PDC      -0.151000
      5 C5          -1.6160     0.0400    -1.1990 ca         1 PDC      -0.173000
      6 C6          -0.2000     0.0190    -1.1850 ca         1 PDC       0.264000
      7 C7           0.5930     0.0180     2.5330 c          1 PDC       0.612500
      8 O1          -0.0280     0.0300     3.5920 o          1 PDC      -0.731000
      9 O2           1.8210    -0.0000     2.5140 o          1 PDC      -0.731000
     10 C8           0.5870     0.0040    -2.5290 c          1 PDC       0.612500
     11 O3          -0.0370     0.0100    -3.5860 o          1 PDC      -0.731000
     12 O4           1.8150    -0.0140    -2.5130 o          1 PDC      -0.731000
     13 H3          -2.1510     0.0580     2.1520 ha         1 PDC       0.106000
     14 H4          -3.4190     0.0710     0.0070 ha         1 PDC       0.057000
     15 H5          -2.1560     0.0460    -2.1420 ha         1 PDC       0.106000
@<TRIPOS>BOND
     1     1     2 ar  
     2     1     6 ar  
     3     2     3 ar  
     4     2     7 1   
     5     3     4 ar  
     6     3    13 1   
     7     4     5 ar  
     8     4    14 1   
     9     5     6 ar  
    10     5    15 1   
    11     6    10 1   
    12     7     8 1   
    13     7     9 1   
    14    10    11 1   
    15    10    12 1   
@<TRIPOS>SUBSTRUCTURE
     1 PDC         1 TEMP              0 ****  ****    0 ROOT
