@<TRIPOS>MOLECULE
PDD
   35    35     1     0     0
SMALL
No Charge or Current Charge


@<TRIPOS>ATOM
      1 N           23.9840    16.0330    69.1110 n7         1 PDD      -0.848400
      2 N1          23.9020    10.9740    69.3630 nb         1 PDD      -0.701000
      3 C2          25.0930    11.6020    69.2070 ca         1 PDD       0.221300
      4 C2A         26.3260    10.7660    69.5450 c3         1 PDD      -0.097400
      5 C3          25.2110    12.9530    68.7650 ca         1 PDD       0.141100
      6 O3A         26.4610    13.5190    68.6190 oh         1 PDD      -0.637100
      7 C4          24.0280    13.6740    68.4570 ca         1 PDD      -0.133300
      8 C4A         24.0850    15.1120    67.9550 c3         1 PDD       0.188100
      9 C5          22.7850    13.0060    68.6200 ca         1 PDD      -0.026300
     10 C5A         21.4400    13.6670    68.3210 c3         1 PDD       0.274900
     11 OP4         21.1450    13.5150    66.9300 os         1 PDD      -0.579400
     12 P           19.6820    13.9250    66.4050 p5         1 PDD       1.268900
     13 OP1         18.6550    13.0770    67.0690 o          1 PDD      -0.925833
     14 OP2         19.6250    13.7020    64.9350 o          1 PDD      -0.925833
     15 OP3         19.4250    15.3610    66.6940 o          1 PDD      -0.925833
     16 C6          22.7820    11.6720    69.0720 ca         1 PDD       0.243900
     17 CA          24.7550    17.3200    68.9980 c3         1 PDD       0.052500
     18 CB          24.2130    18.1710    67.8200 c3         1 PDD      -0.067100
     19 C           26.3320    17.1370    68.9520 c          1 PDD       0.698000
     20 O           27.0350    18.0910    68.6460 o          1 PDD      -0.749500
     21 OXT         26.7890    16.0210    69.1800 o          1 PDD      -0.749500
     22 H           24.3800    15.5370    69.9160 hn         1 PDD       0.378000
     23 H2A1        26.9810    10.6660    68.6720 hc         1 PDD       0.013367
     24 H2A2        26.9070    11.2340    70.3480 hc         1 PDD       0.013367
     25 H2A3        26.0650     9.7530    69.8770 hc         1 PDD       0.013367
     26 HO3         26.4420    14.5060    68.8350 ho         1 PDD       0.562000
     27 H4A1        25.0220    15.2540    67.3970 h1         1 PDD       0.085200
     28 H4A2        23.2800    15.3000    67.2300 h1         1 PDD       0.085200
     29 H5A1        21.4710    14.7280    68.6000 h1         1 PDD       0.005700
     30 H5A2        20.6660    13.1910    68.9370 h1         1 PDD       0.005700
     31 H6          21.8430    11.1360    69.2050 h4         1 PDD      -0.006900
     32 HA          24.5620    17.8960    69.9120 h1         1 PDD       0.015700
     33 HB1         23.1230    18.2710    67.8830 hc         1 PDD       0.035033
     34 HB2         24.6420    19.1800    67.8440 hc         1 PDD       0.035033
     35 HB3         24.4660    17.7180    66.8540 hc         1 PDD       0.035033
@<TRIPOS>BOND
     1     1     8 1   
     2     1    17 1   
     3     1    22 1   
     4     2     3 ar  
     5     2    16 ar  
     6     3     4 1   
     7     3     5 ar  
     8     4    23 1   
     9     4    24 1   
    10     4    25 1   
    11     5     6 1   
    12     5     7 ar  
    13     6    26 1   
    14     7     8 1   
    15     7     9 ar  
    16     8    27 1   
    17     8    28 1   
    18     9    10 1   
    19     9    16 ar  
    20    10    11 1   
    21    10    29 1   
    22    10    30 1   
    23    11    12 1   
    24    12    13 1   
    25    12    14 1   
    26    12    15 1   
    27    16    31 1   
    28    17    18 1   
    29    17    19 1   
    30    17    32 1   
    31    18    33 1   
    32    18    34 1   
    33    18    35 1   
    34    19    20 1   
    35    19    21 1   
@<TRIPOS>SUBSTRUCTURE
     1 PDD         1 TEMP              0 ****  ****    0 ROOT
