@<TRIPOS>MOLECULE
PDD
   35    35     1     0     0
SMALL
bcc


@<TRIPOS>ATOM
      1 N           24.0500    15.9020    69.2110 n7         1 PDD      -0.793200
      2 N1          23.9880    10.9240    69.4530 nb         1 PDD      -0.701000
      3 C2          25.1200    11.5950    69.3080 ca         1 PDD       0.286600
      4 C2A         26.4050    10.8820    69.6030 c3         1 PDD      -0.097400
      5 C3          25.1370    12.9370    68.8790 ca         1 PDD       0.075800
      6 O3A         26.3310    13.5230    68.7800 oh         1 PDD      -0.598100
      7 C4          23.9270    13.5600    68.5560 ca         1 PDD      -0.133300
      8 C4A         23.9340    14.9850    68.0780 c3         1 PDD       0.188100
      9 C5          22.7420    12.8380    68.7310 ca         1 PDD      -0.091600
     10 C5A         21.3970    13.4140    68.3810 c3         1 PDD       0.251700
     11 OP4         21.2570    13.4410    66.9900 os         1 PDD      -0.556200
     12 P           20.1590    14.5840    66.3280 p5         1 PDD       1.268900
     13 OP1         18.7930    14.1730    66.8710 o          1 PDD      -0.925833
     14 OP2         20.3690    14.3420    64.8400 o          1 PDD      -0.925833
     15 OP3         20.6500    15.9410    66.8380 o          1 PDD      -0.925833
     16 C6          22.8380    11.5320    69.1800 ca         1 PDD       0.309200
     17 CA          24.6650    17.1780    68.8910 c3         1 PDD       0.052500
     18 CB          23.8600    17.9240    67.8300 c3         1 PDD      -0.067100
     19 C           26.1700    17.1200    68.5230 c          1 PDD       0.908600
     20 O           26.7030    18.1840    68.1850 o          1 PDD      -0.854800
     21 OXT         26.7730    16.0160    68.6380 o          1 PDD      -0.854800
     22 H           24.5800    15.4680    69.9540 hn         1 PDD       0.322800
     23 H2A1        27.0590    10.8540    68.7300 hc         1 PDD       0.013367
     24 H2A2        26.9680    11.3700    70.4010 hc         1 PDD       0.013367
     25 H2A3        26.2000     9.8580    69.9080 hc         1 PDD       0.013367
     26 HO3         26.3330    14.5330    68.7110 ho         1 PDD       0.523000
     27 H4A1        24.7490    15.1050    67.3500 h1         1 PDD       0.085200
     28 H4A2        23.0160    15.2030    67.5360 h1         1 PDD       0.085200
     29 H5A1        21.3040    14.4150    68.8200 h1         1 PDD       0.005700
     30 H5A2        20.6210    12.7960    68.8560 h1         1 PDD       0.005700
     31 H6          21.9350    10.9440    69.3220 h4         1 PDD      -0.006900
     32 HA          24.6160    17.7770    69.8090 h1         1 PDD       0.015700
     33 HB1         22.8050    17.9530    68.1040 hc         1 PDD       0.035033
     34 HB2         24.2140    18.9470    67.7300 hc         1 PDD       0.035033
     35 HB3         23.9350    17.4510    66.8490 hc         1 PDD       0.035033
@<TRIPOS>BOND
     1     1     8 1   
     2     1    17 1   
     3     1    22 1   
     4     2     3 ar  
     5     2    16 ar  
     6     3     4 1   
     7     3     5 ar  
     8     4    23 1   
     9     4    24 1   
    10     4    25 1   
    11     5     6 1   
    12     5     7 ar  
    13     6    26 1   
    14     7     8 1   
    15     7     9 ar  
    16     8    27 1   
    17     8    28 1   
    18     9    10 1   
    19     9    16 ar  
    20    10    11 1   
    21    10    29 1   
    22    10    30 1   
    23    11    12 1   
    24    12    13 1   
    25    12    14 1   
    26    12    15 1   
    27    16    31 1   
    28    17    18 1   
    29    17    19 1   
    30    17    32 1   
    31    18    33 1   
    32    18    34 1   
    33    18    35 1   
    34    19    20 1   
    35    19    21 1   
@<TRIPOS>SUBSTRUCTURE
     1 PDD         1 TEMP              0 ****  ****    0 ROOT
