@<TRIPOS>MOLECULE
PDE
   39    39     1     0     0
SMALL
bcc


@<TRIPOS>ATOM
      1 P1           0.9350    -0.1480     0.4740 p5         1 PDE       1.223600
      2 O1           2.1480    -0.5270    -0.6770 os         1 PDE      -0.447500
      3 O2           0.8230    -1.3090     1.4180 o          1 PDE      -0.795500
      4 O3           1.2440     1.2270     0.9870 o          1 PDE      -0.795500
      5 C8          -0.4550    -0.1250    -0.6980 c3         1 PDE      -0.275600
      6 C9          -1.7540     0.2350     0.0190 c3         1 PDE      -0.040400
      7 C10         -2.9490     0.2570    -0.9300 c3         1 PDE      -0.153400
      8 C11         -4.1990     0.7770    -0.2490 c          1 PDE       0.654100
      9 N2          -5.2910     0.0190    -0.3800 ns         1 PDE      -0.540900
     10 O6          -4.1880     1.8340     0.3760 o          1 PDE      -0.663100
     11 C12         -6.5730     0.3200     0.2160 c3         1 PDE      -0.038300
     12 C1D         -7.3160     1.4140    -0.5500 c3         1 PDE      -0.077100
     13 C13         -7.4340    -0.9650     0.2730 c          1 PDE       0.926600
     14 O7          -7.0000    -1.9740    -0.3180 o          1 PDE      -0.840300
     15 O8          -8.5050    -0.8600     0.8950 o          1 PDE      -0.840300
     16 C1           3.4530    -0.4660    -0.4280 ca         1 PDE       0.325100
     17 C2           4.0050    -0.5620     0.8570 ca         1 PDE      -0.228000
     18 C6           4.3100    -0.3140    -1.5260 ca         1 PDE      -0.228000
     19 C4           6.2050    -0.3400    -0.0690 ca         1 PDE      -0.273200
     20 C5           5.6750    -0.2530    -1.3530 ca         1 PDE      -0.031000
     21 C3           5.3720    -0.4970     1.0320 ca         1 PDE      -0.031000
     22 N1           7.6320    -0.2690     0.1200 no         1 PDE       0.331200
     23 O4           8.3370    -0.1510    -0.8580 o          1 PDE      -0.258500
     24 O5           8.0660    -0.3290     1.2500 o          1 PDE      -0.258500
     25 HC81        -0.5430    -1.1040    -1.1750 hc         1 PDE       0.050200
     26 HC82        -0.2570     0.6040    -1.4880 hc         1 PDE       0.050200
     27 HC91        -1.6520     1.2150     0.4880 hc         1 PDE       0.057700
     28 HC92        -1.9420    -0.4820     0.8220 hc         1 PDE       0.057700
     29 H101        -3.1110    -0.7370    -1.3560 hc         1 PDE       0.040200
     30 H102        -2.7310     0.9240    -1.7690 hc         1 PDE       0.040200
     31 HN2         -5.2380    -0.8790    -0.8390 hn         1 PDE       0.335500
     32 H12         -6.4110     0.6650     1.2420 h1         1 PDE       0.052700
     33 H1D1        -6.7200     2.3250    -0.6100 hc         1 PDE       0.019700
     34 H1D2        -7.5440     1.0900    -1.5670 hc         1 PDE       0.019700
     35 H1D3        -8.2530     1.6570    -0.0520 hc         1 PDE       0.019700
     36 HC2          3.3740    -0.7130     1.7210 ha         1 PDE       0.161000
     37 HC6          3.8900    -0.2410    -2.5200 ha         1 PDE       0.161000
     38 HC5          6.3150    -0.1320    -2.2150 ha         1 PDE       0.146000
     39 HC3          5.7780    -0.5760     2.0310 ha         1 PDE       0.146000
@<TRIPOS>BOND
     1     1     2 1   
     2     1     3 1   
     3     1     4 1   
     4     1     5 1   
     5     2    16 1   
     6     5     6 1   
     7     5    25 1   
     8     5    26 1   
     9     6     7 1   
    10     6    27 1   
    11     6    28 1   
    12     7     8 1   
    13     7    29 1   
    14     7    30 1   
    15     8     9 1   
    16     8    10 2   
    17     9    11 1   
    18     9    31 1   
    19    11    12 1   
    20    11    13 1   
    21    11    32 1   
    22    12    33 1   
    23    12    34 1   
    24    12    35 1   
    25    13    14 1   
    26    13    15 1   
    27    16    17 ar  
    28    16    18 ar  
    29    17    21 ar  
    30    17    36 1   
    31    18    20 ar  
    32    18    37 1   
    33    19    20 ar  
    34    19    21 ar  
    35    19    22 1   
    36    20    38 1   
    37    21    39 1   
    38    22    23 1   
    39    22    24 1   
@<TRIPOS>SUBSTRUCTURE
     1 PDE         1 TEMP              0 ****  ****    0 ROOT
