@<TRIPOS>MOLECULE
PDE
   39    39     1     0     0
SMALL
No Charge or Current Charge


@<TRIPOS>ATOM
      1 P1           0.9610     0.2080     0.4690 p5         1 PDE       1.381400
      2 O1           2.1190    -0.0020    -0.6320 os         1 PDE      -0.447500
      3 O2           0.7310    -1.0170     1.2930 o          1 PDE      -0.795500
      4 O3           1.1760     1.4370     1.2930 o          1 PDE      -0.795500
      5 C8          -0.4560     0.4640    -0.6750 c3         1 PDE      -0.433400
      6 C9          -1.8180     0.7040     0.0180 c3         1 PDE      -0.040400
      7 C10         -2.9680     0.9200    -0.9920 c3         1 PDE      -0.153400
      8 C11         -4.3110     1.1400    -0.2810 c          1 PDE       0.587100
      9 N2          -5.1890     0.0830    -0.3600 ns         1 PDE      -0.473900
     10 O6          -4.5900     2.1870     0.2900 o          1 PDE      -0.663100
     11 C12         -6.5620     0.0550     0.2000 c3         1 PDE      -0.038300
     12 C1D         -7.5490     0.8530    -0.6810 c3         1 PDE      -0.077100
     13 C13         -7.0470    -1.4150     0.4120 c          1 PDE       0.716000
     14 O7          -6.7710    -2.2500    -0.4410 o          1 PDE      -0.735000
     15 O8          -7.5850    -1.6980     1.4730 o          1 PDE      -0.735000
     16 C1           3.4460    -0.2430    -0.4010 ca         1 PDE       0.325100
     17 C2           4.0010    -0.3440     0.8910 ca         1 PDE      -0.210000
     18 C6           4.2770    -0.3940    -1.5190 ca         1 PDE      -0.210000
     19 C4           6.2120    -0.7450    -0.0730 ca         1 PDE      -0.273200
     20 C5           5.6510    -0.6430    -1.3660 ca         1 PDE      -0.013000
     21 C3           5.3740    -0.5930     1.0560 ca         1 PDE      -0.013000
     22 N1           7.6760    -1.0110     0.1000 no         1 PDE       0.711200
     23 O4           8.3720    -1.1370    -0.9160 o          1 PDE      -0.448500
     24 O5           8.1250    -1.0920     1.2500 o          1 PDE      -0.448500
     25 HC81        -0.5070    -0.4230    -1.3160 hc         1 PDE       0.050200
     26 HC82        -0.1980     1.3200    -1.3080 hc         1 PDE       0.050200
     27 HC91        -1.7450     1.5800     0.6760 hc         1 PDE       0.057700
     28 HC92        -2.0590    -0.1550     0.6590 hc         1 PDE       0.057700
     29 H101        -3.0280     0.0390    -1.6420 hc         1 PDE       0.040200
     30 H102        -2.7370     1.8080    -1.5930 hc         1 PDE       0.040200
     31 HN2         -4.8650    -0.7410    -0.8550 hn         1 PDE       0.335500
     32 H12         -6.5300     0.5260     1.1910 h1         1 PDE       0.052700
     33 H1D1        -7.2350     1.9000    -0.7720 hc         1 PDE       0.019700
     34 H1D2        -7.6090     0.4220    -1.6870 hc         1 PDE       0.019700
     35 H1D3        -8.5530     0.8380    -0.2410 hc         1 PDE       0.019700
     36 HC2          3.3870    -0.2320     1.7790 ha         1 PDE       0.143000
     37 HC6          3.8500    -0.3160    -2.5150 ha         1 PDE       0.143000
     38 HC5          6.2690    -0.7550    -2.2550 ha         1 PDE       0.128000
     39 HC3          5.7780    -0.6660     2.0650 ha         1 PDE       0.128000
@<TRIPOS>BOND
     1     1     2 1   
     2     1     3 1   
     3     1     4 1   
     4     1     5 1   
     5     2    16 1   
     6     5     6 1   
     7     5    25 1   
     8     5    26 1   
     9     6     7 1   
    10     6    27 1   
    11     6    28 1   
    12     7     8 1   
    13     7    29 1   
    14     7    30 1   
    15     8     9 1   
    16     8    10 2   
    17     9    11 1   
    18     9    31 1   
    19    11    12 1   
    20    11    13 1   
    21    11    32 1   
    22    12    33 1   
    23    12    34 1   
    24    12    35 1   
    25    13    14 1   
    26    13    15 1   
    27    16    17 ar  
    28    16    18 ar  
    29    17    21 ar  
    30    17    36 1   
    31    18    20 ar  
    32    18    37 1   
    33    19    20 ar  
    34    19    21 ar  
    35    19    22 1   
    36    20    38 1   
    37    21    39 1   
    38    22    23 1   
    39    22    24 1   
@<TRIPOS>SUBSTRUCTURE
     1 PDE         1 TEMP              0 ****  ****    0 ROOT
