@<TRIPOS>MOLECULE
PDF
   16    16     1     0     0
SMALL
No Charge or Current Charge


@<TRIPOS>ATOM
      1 N            0.1880    -1.3410    -0.6550 n7         1 PDF      -0.829400
      2 CD          -1.2880    -1.1580    -0.7260 c5         1 PDF       0.104800
      3 CA           0.7190     0.0550    -0.4890 c5         1 PDF       0.015500
      4 CB          -0.2330     0.6180     0.6010 c5         1 PDF      -0.140400
      5 CG          -1.6170     0.1460     0.0790 c5         1 PDF       0.121000
      6 C            2.2280     0.1940    -0.0150 c          1 PDF       0.725000
      7 O            2.6450    -0.5290     0.8830 o          1 PDF      -0.723000
      8 F1          -2.1980     1.1120    -0.7420 f          1 PDF      -0.140000
      9 F2          -2.4950    -0.1040     1.1330 f          1 PDF      -0.140000
     10 HN           0.4180    -1.8540     0.2090 hn         1 PDF       0.432000
     11 HD          -1.6030    -1.0410    -1.7730 h1         1 PDF       0.049200
     12 HDA         -1.8140    -2.0360    -0.3240 h1         1 PDF       0.049200
     13 HA           0.6090     0.6190    -1.4270 h1         1 PDF       0.058700
     14 HB          -0.0120     0.1940     1.5870 hc         1 PDF       0.070200
     15 HBA         -0.1660     1.7080     0.6930 hc         1 PDF       0.070200
     16 O2           2.9620     0.9810    -0.5990 o          1 PDF      -0.723000
@<TRIPOS>BOND
     1     1     2 1   
     2     1     3 1   
     3     1    10 1   
     4     2     5 1   
     5     2    11 1   
     6     2    12 1   
     7     3     4 1   
     8     3     6 1   
     9     3    13 1   
    10     4     5 1   
    11     4    14 1   
    12     4    15 1   
    13     5     8 1   
    14     5     9 1   
    15     6     7 1   
    16     6    16 1   
@<TRIPOS>SUBSTRUCTURE
     1 PDF         1 TEMP              0 ****  ****    0 ROOT
