@<TRIPOS>MOLECULE
PDF
   16    16     1     0     0
SMALL
bcc


@<TRIPOS>ATOM
      1 N            0.1950    -1.2830    -0.6940 n7         1 PDF      -0.774200
      2 CD          -1.2530    -1.1620    -0.6530 c5         1 PDF       0.104800
      3 CA           0.7310     0.0590    -0.5040 c5         1 PDF       0.015500
      4 CB          -0.2370     0.7340     0.4820 c5         1 PDF      -0.140400
      5 CG          -1.5760     0.1450     0.0910 c5         1 PDF       0.363600
      6 C            2.1710     0.0770     0.0350 c          1 PDF       0.935600
      7 O            2.5940    -0.9730     0.5570 o          1 PDF      -0.828300
      8 F1          -2.2770     0.9980    -0.7220 f          1 PDF      -0.261300
      9 F2          -2.3950    -0.0570     1.1680 f          1 PDF      -0.261300
     10 HN           0.5250    -1.8510     0.0770 hn         1 PDF       0.376800
     11 HD          -1.6640    -1.0970    -1.6650 h1         1 PDF       0.049200
     12 HDA         -1.7110    -2.0260    -0.1710 h1         1 PDF       0.049200
     13 HA           0.7020     0.5970    -1.4590 h1         1 PDF       0.058700
     14 HB           0.0020     0.4150     1.5000 hc         1 PDF       0.070200
     15 HBA         -0.2290     1.8230     0.4540 hc         1 PDF       0.070200
     16 O2           2.7680     1.1650    -0.0620 o          1 PDF      -0.828300
@<TRIPOS>BOND
     1     1     2 1   
     2     1     3 1   
     3     1    10 1   
     4     2     5 1   
     5     2    11 1   
     6     2    12 1   
     7     3     4 1   
     8     3     6 1   
     9     3    13 1   
    10     4     5 1   
    11     4    14 1   
    12     4    15 1   
    13     5     8 1   
    14     5     9 1   
    15     6     7 1   
    16     6    16 1   
@<TRIPOS>SUBSTRUCTURE
     1 PDF         1 TEMP              0 ****  ****    0 ROOT
