@<TRIPOS>MOLECULE
PDH
   24    24     1     0     0
SMALL
No Charge or Current Charge


@<TRIPOS>ATOM
      1 C           -0.4490    -0.4600    -3.0990 c3         1 PDH       0.117600
      2 O           -0.3180     0.5750    -4.0920 oh         1 PDH      -0.664000
      3 CA          -0.1570     0.0960    -1.6720 c3         1 PDH       0.161500
      4 N            1.1320     0.8340    -1.6540 n8         1 PDH      -0.985200
      5 CB          -0.1960    -1.0200    -0.5950 c3         1 PDH      -0.027100
      6 CG          -0.0940    -0.5020     0.8380 ca         1 PDH      -0.061300
      7 CD1         -1.1610     0.2210     1.4080 ca         1 PDH      -0.099000
      8 CD2          1.0570    -0.7570     1.6130 ca         1 PDH      -0.099000
      9 CE1         -1.0770     0.6900     2.7310 ca         1 PDH      -0.110000
     10 CE2          1.1400    -0.2880     2.9360 ca         1 PDH      -0.110000
     11 CZ           0.0740     0.4360     3.4950 ca         1 PDH      -0.111000
     12 H1           0.2510    -1.2780    -3.3170 h1         1 PDH       0.021200
     13 H2          -1.4640    -0.8780    -3.1190 h1         1 PDH       0.021200
     14 HO          -0.5300     0.1680    -4.9620 ho         1 PDH       0.445000
     15 HA          -0.9570     0.8170    -1.4430 h1         1 PDH       0.076700
     16 HN           1.8960     0.1580    -1.7540 hn         1 PDH       0.397500
     17 H            1.1720     1.3550    -2.5390 hn         1 PDH       0.397500
     18 HB1         -1.1360    -1.5750    -0.7030 hc         1 PDH       0.043700
     19 HB2          0.6010    -1.7460    -0.7990 hc         1 PDH       0.043700
     20 HD1         -2.0580     0.4190     0.8250 ha         1 PDH       0.106500
     21 HD2          1.8870    -1.3170     1.1900 ha         1 PDH       0.106500
     22 HE1         -1.9040     1.2480     3.1630 ha         1 PDH       0.109500
     23 HE2          2.0320    -0.4870     3.5270 ha         1 PDH       0.109500
     24 HZ           0.1390     0.7980     4.5190 ha         1 PDH       0.110000
@<TRIPOS>BOND
     1     1     2 1   
     2     1     3 1   
     3     1    12 1   
     4     1    13 1   
     5     2    14 1   
     6     3     4 1   
     7     3     5 1   
     8     3    15 1   
     9     4    16 1   
    10     4    17 1   
    11     5     6 1   
    12     5    18 1   
    13     5    19 1   
    14     6     7 ar  
    15     6     8 ar  
    16     7     9 ar  
    17     7    20 1   
    18     8    10 ar  
    19     8    21 1   
    20     9    11 ar  
    21     9    22 1   
    22    10    11 ar  
    23    10    23 1   
    24    11    24 1   
@<TRIPOS>SUBSTRUCTURE
     1 PDH         1 TEMP              0 ****  ****    0 ROOT
