@<TRIPOS>MOLECULE
PDH
   24    24     1     0     0
SMALL
abcg2


@<TRIPOS>ATOM
      1 C           -0.4300    -0.4690    -3.0470 c3         1 PDH       0.117600
      2 O           -0.3500     0.5740    -3.9950 oh         1 PDH      -0.664000
      3 CA          -0.1400     0.1000    -1.6620 c3         1 PDH       0.161500
      4 N            1.1670     0.7180    -1.5330 n8         1 PDH      -0.985200
      5 CB          -0.2990    -1.0070    -0.6170 c3         1 PDH      -0.027100
      6 CG          -0.1540    -0.5100     0.7930 ca         1 PDH      -0.061300
      7 CD1         -1.2080     0.1540     1.4190 ca         1 PDH      -0.099000
      8 CD2          1.0330    -0.6800     1.5000 ca         1 PDH      -0.099000
      9 CE1         -1.0790     0.6360     2.7140 ca         1 PDH      -0.110000
     10 CE2          1.1660    -0.2050     2.7980 ca         1 PDH      -0.110000
     11 CZ           0.1100     0.4570     3.4100 ca         1 PDH      -0.111000
     12 H1           0.2960    -1.2650    -3.2620 h1         1 PDH       0.021200
     13 H2          -1.4250    -0.9340    -3.0480 h1         1 PDH       0.021200
     14 HO          -0.3800     0.1860    -4.8740 ho         1 PDH       0.445000
     15 HA          -0.8940     0.8710    -1.4550 h1         1 PDH       0.076700
     16 HN           1.8890     0.0180    -1.6670 hn         1 PDH       0.397500
     17 H            1.2980     1.3970    -2.2720 hn         1 PDH       0.397500
     18 HB1         -1.2810    -1.4700    -0.7440 hc         1 PDH       0.043700
     19 HB2          0.4420    -1.7880    -0.8120 hc         1 PDH       0.043700
     20 HD1         -2.1420     0.2930     0.8860 ha         1 PDH       0.106500
     21 HD2          1.8630    -1.1940     1.0290 ha         1 PDH       0.106500
     22 HE1         -1.9100     1.1500     3.1820 ha         1 PDH       0.109500
     23 HE2          2.0970    -0.3520     3.3320 ha         1 PDH       0.109500
     24 HZ           0.2130     0.8280     4.4210 ha         1 PDH       0.110000
@<TRIPOS>BOND
     1     1     2 1   
     2     1     3 1   
     3     1    12 1   
     4     1    13 1   
     5     2    14 1   
     6     3     4 1   
     7     3     5 1   
     8     3    15 1   
     9     4    16 1   
    10     4    17 1   
    11     5     6 1   
    12     5    18 1   
    13     5    19 1   
    14     6     7 ar  
    15     6     8 ar  
    16     7     9 ar  
    17     7    20 1   
    18     8    10 ar  
    19     8    21 1   
    20     9    11 ar  
    21     9    22 1   
    22    10    11 ar  
    23    10    23 1   
    24    11    24 1   
@<TRIPOS>SUBSTRUCTURE
     1 PDH         1 TEMP              0 ****  ****    0 ROOT
