@<TRIPOS>MOLECULE
PDK
  151   150     1     0     0
SMALL
No Charge or Current Charge


@<TRIPOS>ATOM
      1 C            6.9770     1.7260    -2.7610 c          1 PDK       0.694000
      2 N            6.4980    -0.4850    -1.3460 n3         1 PDK      -0.779600
      3 O            8.0680     1.7690    -3.3160 o          1 PDK      -0.768500
      4 CA           6.8600     0.9820    -1.3720 c3         1 PDK       0.066800
      5 C43          0.7160    -6.6390     1.7970 c3         1 PDK      -0.083400
      6 C44         -0.0070    -5.3760     2.3130 c3         1 PDK      -0.058400
      7 C58        -17.4400     1.8640    -1.2940 c3         1 PDK      -0.075400
      8 C59        -18.7700     2.6280    -1.1050 c3         1 PDK      -0.074400
      9 OAD         10.6140    -4.5400    -4.1730 o          1 PDK      -0.769500
     10 OAE         11.3360    -1.4740     1.1850 o          1 PDK      -0.769500
     11 OAF          0.7770    -1.9770    -3.8840 o          1 PDK      -0.766000
     12 OAG          1.8480    -1.2650     1.4080 o          1 PDK      -0.604100
     13 OAH         -5.8280     4.4140    -2.5420 o          1 PDK      -0.515000
     14 OAI         -4.3900     1.2910     1.2850 o          1 PDK      -0.524000
     15 OAJ          0.6880     3.6380     1.2940 o          1 PDK      -0.816500
     16 OAL         12.2050    -3.1040    -4.3340 o          1 PDK      -0.769500
     17 OAM         10.9900    -3.5860     0.9840 o          1 PDK      -0.769500
     18 OAN         -0.0270     0.0040    -3.6590 o          1 PDK      -0.766000
     19 OAO          0.6200     4.2340     3.6980 o          1 PDK      -0.816500
     20 CAX        -16.1990     2.7180    -0.9520 c3         1 PDK      -0.073400
     21 CAZ        -14.8680     1.9690    -1.1820 c3         1 PDK      -0.075400
     22 CBB        -13.6260     2.8420    -0.8940 c3         1 PDK      -0.073400
     23 CBD        -12.2950     2.1160    -1.1880 c3         1 PDK      -0.076400
     24 CBE         -0.4770    -4.4400     1.1780 c3         1 PDK      -0.095400
     25 CBF        -11.0580     3.0150    -0.9760 c3         1 PDK      -0.072400
     26 CBG         -1.1430    -3.1500     1.7010 c3         1 PDK      -0.050400
     27 CBH         -9.7320     2.3200    -1.3560 c3         1 PDK      -0.078400
     28 CBI         -1.6140    -2.2030     0.5760 c3         1 PDK      -0.095400
     29 CBJ         -8.5060     3.2500    -1.2330 c3         1 PDK      -0.064400
     30 CBK         -2.1290    -0.8550     1.1250 c3         1 PDK      -0.054400
     31 CBL          1.2500     0.9770     3.1530 c3         1 PDK       0.082000
     32 CBM         -0.1820     1.3040     3.6800 c3         1 PDK       0.203600
     33 CBN         -7.1920     2.5850    -1.7060 c3         1 PDK      -0.146400
     34 CBO         -2.6850     0.0980     0.0440 c3         1 PDK      -0.147400
     35 CBP          7.5280    -1.3580    -1.9920 c3         1 PDK       0.205800
     36 CBQ          5.1280    -0.7650    -1.8790 c3         1 PDK       0.211800
     37 CBR          8.9620    -1.3070    -1.3700 c3         1 PDK       0.176800
     38 CBS          3.9460    -0.0670    -1.1320 c3         1 PDK       0.160800
     39 CBT         -4.0660     4.2310    -0.4400 c3         1 PDK       0.155600
     40 CBU         -2.0750     4.8010     1.0300 c3         1 PDK       0.225600
     41 CBW         10.1460    -2.3190    -3.3340 c3         1 PDK       0.053300
     42 CBX         11.2110    -2.3300    -1.0730 c3         1 PDK       0.053300
     43 CBY          2.2670    -0.3080    -2.9780 c3         1 PDK       0.035800
     44 CBZ          1.5150     0.0820    -0.6300 c3         1 PDK       0.106800
     45 NCA          1.3440     0.9360     1.6860 ns         1 PDK      -0.552900
     46 OCB         -5.2210     3.3830    -0.5840 os         1 PDK      -0.426100
     47 OCC         -0.8430     2.3060     2.8730 os         1 PDK      -0.605400
     48 OCD         -1.4660     4.6260     2.3220 os         1 PDK      -0.578400
     49 OCE         -2.6110     2.4800     0.4260 os         1 PDK      -0.429100
     50 CCG         11.0700    -3.4170    -3.9890 c          1 PDK       0.716500
     51 CCH         11.1640    -2.4740     0.4980 c          1 PDK       0.716500
     52 CCI          0.8860    -0.8050    -3.5450 c          1 PDK       0.719000
     53 CCJ          1.5910    -0.1750     0.9100 c          1 PDK       0.594100
     54 CCK         -6.0230     3.5700    -1.6770 c          1 PDK       0.598100
     55 CCL         -3.3340     1.3360     0.6650 c          1 PDK       0.621100
     56 CCM         -3.2010     3.7620     0.7650 c3         1 PDK       0.147300
     57 NCO          9.9200    -2.3510    -1.8450 n3         1 PDK      -0.665600
     58 NCP          2.5720    -0.5140    -1.5160 n3         1 PDK      -0.678600
     59 PCQ         -0.1490     3.7190     2.5280 p5         1 PDK       1.389800
     60 OXT          5.9800     2.2610    -3.2290 o          1 PDK      -0.768500
     61 C39        -20.0100     1.7860    -1.4800 c3         1 PDK      -0.076400
     62 C40        -21.3380     2.5560    -1.3120 c3         1 PDK      -0.075400
     63 C41        -22.5730     1.7210    -1.7020 c3         1 PDK      -0.087100
     64 C42          1.2040    -7.5630     2.9340 c3         1 PDK      -0.066400
     65 C431         1.9550    -8.8080     2.4170 c3         1 PDK      -0.081400
     66 C441         2.4550    -9.7300     3.5500 c3         1 PDK      -0.069400
     67 C45          3.2230   -10.9630     3.0270 c3         1 PDK      -0.080400
     68 C46          3.7220   -11.8910     4.1550 c3         1 PDK      -0.073400
     69 C47          4.4960   -13.1150     3.6280 c3         1 PDK      -0.087100
     70 H1A          7.8180     1.1250    -0.8540 h1         1 PDK       0.013700
     71 H2A          6.1320     1.5440    -0.7720 h1         1 PDK       0.013700
     72 H143         0.0390    -7.2000     1.1400 hc         1 PDK       0.062700
     73 H243         1.5760    -6.3360     1.1860 hc         1 PDK       0.062700
     74 H144        -0.8740    -5.6750     2.9150 hc         1 PDK       0.007700
     75 H244         0.6700    -4.8230     2.9770 hc         1 PDK       0.007700
     76 H158       -17.4460     0.9660    -0.6640 hc         1 PDK       0.037700
     77 H258       -17.3670     1.5250    -2.3350 hc         1 PDK       0.037700
     78 H159       -18.8550     2.9520    -0.0600 hc         1 PDK       0.035200
     79 H259       -18.7530     3.5360    -1.7220 hc         1 PDK       0.035200
     80 H1AX       -16.2100     3.6270    -1.5680 hc         1 PDK       0.034700
     81 H2AX       -16.2570     3.0400     0.0950 hc         1 PDK       0.034700
     82 H1AZ       -14.8390     1.0760    -0.5450 hc         1 PDK       0.038200
     83 H2AZ       -14.8280     1.6230    -2.2220 hc         1 PDK       0.038200
     84 H1BB       -13.6800     3.7510    -1.5060 hc         1 PDK       0.034700
     85 H2BB       -13.6420     3.1610     0.1560 hc         1 PDK       0.034700
     86 H1BD       -12.2150     1.2300    -0.5460 hc         1 PDK       0.038700
     87 H2BD       -12.3050     1.7600    -2.2260 hc         1 PDK       0.038700
     88 H1BE         0.3860    -4.1680     0.5550 hc         1 PDK       0.085700
     89 H2BE        -1.1820    -4.9770     0.5310 hc         1 PDK       0.085700
     90 H1BF       -11.1700     3.9230    -1.5820 hc         1 PDK       0.035200
     91 H2BF       -11.0140     3.3340     0.0730 hc         1 PDK       0.035200
     92 H1BG        -2.0030    -3.4160     2.3290 hc         1 PDK       0.002700
     93 H2BG        -0.4330    -2.6190     2.3470 hc         1 PDK       0.002700
     94 H1BH        -9.5870     1.4390    -0.7170 hc         1 PDK       0.040700
     95 H2BH        -9.8030     1.9570    -2.3890 hc         1 PDK       0.040700
     96 H1BI        -0.7850    -2.0200    -0.1180 hc         1 PDK       0.081700
     97 H2BI        -2.4090    -2.6950     0.0010 hc         1 PDK       0.081700
     98 H1BJ        -8.6830     4.1540    -1.8300 hc         1 PDK       0.046700
     99 H2BJ        -8.3960     3.5740    -0.1900 hc         1 PDK       0.046700
    100 H1BK        -2.9130    -1.0520     1.8670 hc         1 PDK       0.026200
    101 H2BK        -1.3120    -0.3510     1.6480 hc         1 PDK       0.026200
    102 H1BL         1.9480     1.7430     3.5120 h1         1 PDK       0.032200
    103 H2BL         1.5740     0.0190     3.5780 h1         1 PDK       0.032200
    104 H1BM        -0.7740     0.3810     3.6750 h1         1 PDK       0.025200
    105 H2BM        -0.1130     1.6340     4.7250 h1         1 PDK       0.025200
    106 H1BN        -6.9760     1.7430    -1.0370 hc         1 PDK       0.076700
    107 H2BN        -7.3240     2.2300    -2.7340 hc         1 PDK       0.076700
    108 H1BO        -1.8720     0.4060    -0.6240 hc         1 PDK       0.103200
    109 H2BO        -3.4540    -0.4290    -0.5310 hc         1 PDK       0.103200
    110 H1BP         7.1940    -2.4040    -1.9360 h1         1 PDK       0.046200
    111 H2BP         7.6010    -1.1090    -3.0590 h1         1 PDK       0.046200
    112 H1BQ         5.0860    -0.4870    -2.9400 h1         1 PDK       0.042200
    113 H2BQ         4.9410    -1.8470    -1.8300 h1         1 PDK       0.042200
    114 H1BR         9.3910    -0.3140    -1.5570 h1         1 PDK       0.010700
    115 H2BR         8.8410    -1.4030    -0.2830 h1         1 PDK       0.010700
    116 H1BS         4.0940    -0.2480    -0.0590 h1         1 PDK       0.018200
    117 H2BS         4.0250     1.0170    -1.2850 h1         1 PDK       0.018200
    118 H1BT        -3.4480     4.2050    -1.3470 h1         1 PDK       0.053700
    119 H2BT        -4.3830     5.2710    -0.2790 h1         1 PDK       0.053700
    120 H1BU        -2.5140     5.8060     0.9870 h1         1 PDK       0.022700
    121 H2BU        -1.3330     4.7480     0.2220 h1         1 PDK       0.022700
    122 H1BW        10.5590    -1.3380    -3.6070 h1         1 PDK      -0.001550
    123 H2BW         9.1800    -2.3980    -3.8480 h1         1 PDK      -0.001550
    124 H1BX        11.7420    -1.3940    -1.2990 h1         1 PDK      -0.001550
    125 H2BX        11.8570    -3.1410    -1.4340 h1         1 PDK      -0.001550
    126 H1BY         3.0320    -0.8080    -3.5850 h1         1 PDK       0.022700
    127 H2BY         2.3420     0.7630    -3.2120 h1         1 PDK       0.022700
    128 H1BZ         0.5250    -0.2730    -0.9370 h1         1 PDK       0.044700
    129 H2BZ         1.5030     1.1720    -0.7730 h1         1 PDK       0.044700
    130 HNCA         1.1450     1.8080     1.1940 hn         1 PDK       0.364500
    131 HCM         -3.8250     3.7040     1.6670 h1         1 PDK       0.066700
    132 H68        -19.9170     1.4540    -2.5220 hc         1 PDK       0.037200
    133 H69        -20.0350     0.8830    -0.8570 hc         1 PDK       0.037200
    134 H70        -21.4410     2.8810    -0.2700 hc         1 PDK       0.034700
    135 H71        -21.3130     3.4630    -1.9290 hc         1 PDK       0.034700
    136 H72        -23.4890     2.3090    -1.5680 hc         1 PDK       0.028033
    137 H73        -22.5160     1.4100    -2.7520 hc         1 PDK       0.028033
    138 H74        -22.6470     0.8230    -1.0780 hc         1 PDK       0.028033
    139 H75          1.8660    -6.9950     3.6000 hc         1 PDK       0.016700
    140 H76          0.3430    -7.8830     3.5340 hc         1 PDK       0.016700
    141 H77          1.2930    -9.3790     1.7530 hc         1 PDK       0.052200
    142 H78          2.8130    -8.4850     1.8120 hc         1 PDK       0.052200
    143 H79          3.1090    -9.1570     4.2200 hc         1 PDK       0.022700
    144 H80          1.5980   -10.0650     4.1470 hc         1 PDK       0.022700
    145 H81          2.5710   -11.5350     2.3530 hc         1 PDK       0.046200
    146 H82          4.0810   -10.6270     2.4320 hc         1 PDK       0.046200
    147 H83          4.3720   -11.3230     4.8330 hc         1 PDK       0.025700
    148 H84          2.8660   -12.2380     4.7470 hc         1 PDK       0.025700
    149 H85          4.8280   -13.7450     4.4620 hc         1 PDK       0.025033
    150 H86          3.8620   -13.7210     2.9700 hc         1 PDK       0.025033
    151 H87          5.3810   -12.7990     3.0630 hc         1 PDK       0.025033
@<TRIPOS>BOND
     1     1     3 1   
     2     1     4 1   
     3     1    60 1   
     4     2     4 1   
     5     2    35 1   
     6     2    36 1   
     7     4    70 1   
     8     4    71 1   
     9     5     6 1   
    10     5    64 1   
    11     5    72 1   
    12     5    73 1   
    13     6    24 1   
    14     6    74 1   
    15     6    75 1   
    16     7     8 1   
    17     7    20 1   
    18     7    76 1   
    19     7    77 1   
    20     8    61 1   
    21     8    78 1   
    22     8    79 1   
    23     9    50 1   
    24    10    51 1   
    25    11    52 1   
    26    12    53 2   
    27    13    54 2   
    28    14    55 2   
    29    15    59 1   
    30    16    50 1   
    31    17    51 1   
    32    18    52 1   
    33    19    59 1   
    34    20    21 1   
    35    20    80 1   
    36    20    81 1   
    37    21    22 1   
    38    21    82 1   
    39    21    83 1   
    40    22    23 1   
    41    22    84 1   
    42    22    85 1   
    43    23    25 1   
    44    23    86 1   
    45    23    87 1   
    46    24    26 1   
    47    24    88 1   
    48    24    89 1   
    49    25    27 1   
    50    25    90 1   
    51    25    91 1   
    52    26    28 1   
    53    26    92 1   
    54    26    93 1   
    55    27    29 1   
    56    27    94 1   
    57    27    95 1   
    58    28    30 1   
    59    28    96 1   
    60    28    97 1   
    61    29    33 1   
    62    29    98 1   
    63    29    99 1   
    64    30    34 1   
    65    30   100 1   
    66    30   101 1   
    67    31    32 1   
    68    31    45 1   
    69    31   102 1   
    70    31   103 1   
    71    32    47 1   
    72    32   104 1   
    73    32   105 1   
    74    33    54 1   
    75    33   106 1   
    76    33   107 1   
    77    34    55 1   
    78    34   108 1   
    79    34   109 1   
    80    35    37 1   
    81    35   110 1   
    82    35   111 1   
    83    36    38 1   
    84    36   112 1   
    85    36   113 1   
    86    37    57 1   
    87    37   114 1   
    88    37   115 1   
    89    38    58 1   
    90    38   116 1   
    91    38   117 1   
    92    39    46 1   
    93    39    56 1   
    94    39   118 1   
    95    39   119 1   
    96    40    48 1   
    97    40    56 1   
    98    40   120 1   
    99    40   121 1   
   100    41    50 1   
   101    41    57 1   
   102    41   122 1   
   103    41   123 1   
   104    42    51 1   
   105    42    57 1   
   106    42   124 1   
   107    42   125 1   
   108    43    52 1   
   109    43    58 1   
   110    43   126 1   
   111    43   127 1   
   112    44    53 1   
   113    44    58 1   
   114    44   128 1   
   115    44   129 1   
   116    45    53 1   
   117    45   130 1   
   118    46    54 1   
   119    47    59 1   
   120    48    59 1   
   121    49    55 1   
   122    49    56 1   
   123    56   131 1   
   124    61    62 1   
   125    61   132 1   
   126    61   133 1   
   127    62    63 1   
   128    62   134 1   
   129    62   135 1   
   130    63   136 1   
   131    63   137 1   
   132    63   138 1   
   133    64    65 1   
   134    64   139 1   
   135    64   140 1   
   136    65    66 1   
   137    65   141 1   
   138    65   142 1   
   139    66    67 1   
   140    66   143 1   
   141    66   144 1   
   142    67    68 1   
   143    67   145 1   
   144    67   146 1   
   145    68    69 1   
   146    68   147 1   
   147    68   148 1   
   148    69   149 1   
   149    69   150 1   
   150    69   151 1   
@<TRIPOS>SUBSTRUCTURE
     1 PDK         1 TEMP              0 ****  ****    0 ROOT
