@<TRIPOS>MOLECULE
PDK
  151   150     1     0     0
SMALL
abcg2


@<TRIPOS>ATOM
      1 C            5.6670    -0.9640    -5.4330 c          1 PDK       0.694000
      2 N            5.7690    -0.9240    -2.8650 n3         1 PDK      -0.779600
      3 O            5.5550    -2.2050    -5.3950 o          1 PDK      -0.768500
      4 CA           5.8270    -0.1870    -4.1030 c3         1 PDK       0.066800
      5 C43          1.1710    -6.4020     2.0650 c3         1 PDK      -0.083400
      6 C44          0.2580    -5.3820     2.7330 c3         1 PDK      -0.058400
      7 C58        -17.2380     1.8280    -1.9920 c3         1 PDK      -0.075400
      8 C59        -18.5460     2.3900    -2.5350 c3         1 PDK      -0.074400
      9 OAD         11.2620    -3.4740    -2.7250 o          1 PDK      -0.769500
     10 OAE         10.0130    -1.6320     1.7180 o          1 PDK      -0.769500
     11 OAF         -0.0580    -2.5110    -1.8140 o          1 PDK      -0.766000
     12 OAG          2.7710    -1.3930     1.0340 o          1 PDK      -0.604100
     13 OAH         -6.2390     5.4240    -0.2620 o          1 PDK      -0.515000
     14 OAI         -3.1550     1.5560     3.4490 o          1 PDK      -0.524000
     15 OAJ          0.4560     3.0230     1.1460 o          1 PDK      -0.816500
     16 OAL         11.9890    -1.9840    -4.2120 o          1 PDK      -0.769500
     17 OAM          8.5270    -2.8600     0.6060 o          1 PDK      -0.769500
     18 OAN         -0.6700    -1.6270    -3.7660 o          1 PDK      -0.766000
     19 OAO          1.4210     4.7770     2.7860 o          1 PDK      -0.816500
     20 CAX        -16.0910     2.8300    -2.0110 c3         1 PDK      -0.073400
     21 CAZ        -14.7900     2.2600    -1.4600 c3         1 PDK      -0.075400
     22 CBB        -13.6360     3.2550    -1.4700 c3         1 PDK      -0.073400
     23 CBD        -12.3460     2.6760    -0.9020 c3         1 PDK      -0.076400
     24 CBE          0.0140    -4.1370     1.8910 c3         1 PDK      -0.095400
     25 CBF        -11.1850     3.6630    -0.9020 c3         1 PDK      -0.072400
     26 CBG         -0.8950    -3.1260     2.5780 c3         1 PDK      -0.050400
     27 CBH         -9.9100     3.0770    -0.3100 c3         1 PDK      -0.078400
     28 CBI         -1.1210    -1.8780     1.7380 c3         1 PDK      -0.095400
     29 CBJ         -8.7450     4.0590    -0.3090 c3         1 PDK      -0.064400
     30 CBK         -1.9220    -0.8040     2.4600 c3         1 PDK      -0.054400
     31 CBL          2.0430     0.4670     3.0310 c3         1 PDK       0.082000
     32 CBM          2.0230     1.8220     3.7090 c3         1 PDK       0.203600
     33 CBN         -7.5000     3.4510     0.3160 c3         1 PDK      -0.146400
     34 CBO         -2.0790     0.4430     1.6080 c3         1 PDK      -0.147400
     35 CBP          6.9300    -1.7580    -2.6260 c3         1 PDK       0.205800
     36 CBQ          4.4680    -1.4680    -2.5460 c3         1 PDK       0.211800
     37 CBR          8.0030    -0.9970    -1.8540 c3         1 PDK       0.176800
     38 CBS          3.5570    -0.3940    -1.9570 c3         1 PDK       0.160800
     39 CBT         -4.1060     4.6270     1.1110 c3         1 PDK       0.155600
     40 CBU         -1.8810     4.6990     2.2350 c3         1 PDK       0.225600
     41 CBW         10.0370    -1.4270    -3.0160 c3         1 PDK       0.053300
     42 CBX         10.0250    -1.4450    -0.6300 c3         1 PDK       0.053300
     43 CBY          1.4000    -0.9290    -2.8870 c3         1 PDK       0.035800
     44 CBZ          1.5680    -0.1440    -0.6530 c3         1 PDK       0.106800
     45 NCA          1.8230     0.5800     1.6080 ns         1 PDK      -0.552900
     46 OCB         -5.3150     3.8770     1.0510 os         1 PDK      -0.426100
     47 OCC          0.7430     2.4380     3.6350 os         1 PDK      -0.605400
     48 OCD         -1.0050     3.9670     3.0610 os         1 PDK      -0.578400
     49 OCE         -2.8520     2.6460     1.5120 os         1 PDK      -0.429100
     50 CCG         11.2010    -2.3890    -3.3280 c          1 PDK       0.716500
     51 CCH          9.4420    -2.0210     0.6740 c          1 PDK       0.716500
     52 CCI          0.1110    -1.7760    -2.8010 c          1 PDK       0.719000
     53 CCJ          2.1350    -0.3940     0.7350 c          1 PDK       0.594100
     54 CCK         -6.3100     4.3690     0.3140 c          1 PDK       0.598100
     55 CCL         -2.7580     1.5800     2.3140 c          1 PDK       0.621100
     56 CCM         -3.1760     3.9170     2.0660 c3         1 PDK       0.147300
     57 NCO          9.2670    -1.7100    -1.8270 n3         1 PDK      -0.665600
     58 NCP          2.2170    -0.8910    -1.6930 n3         1 PDK      -0.678600
     59 PCQ          0.5080     3.6220     2.5290 p5         1 PDK       1.389800
     60 OXT          5.6790    -0.2490    -6.4570 o          1 PDK      -0.768500
     61 C39        -19.6870     1.3820    -2.5110 c3         1 PDK      -0.076400
     62 C40        -20.9980     1.9350    -3.0570 c3         1 PDK      -0.075400
     63 C41        -22.1290     0.9160    -3.0270 c3         1 PDK      -0.087100
     64 C42          1.4100    -7.6380     2.9230 c3         1 PDK      -0.066400
     65 C431         2.3200    -8.6690     2.2670 c3         1 PDK      -0.081400
     66 C441         2.5510    -9.9020     3.1320 c3         1 PDK      -0.069400
     67 C45          3.4600   -10.9360     2.4800 c3         1 PDK      -0.080400
     68 C46          3.6870   -12.1710     3.3440 c3         1 PDK      -0.073400
     69 C47          4.5950   -13.1970     2.6810 c3         1 PDK      -0.087100
     70 H1A          6.7820     0.3500    -4.1470 h1         1 PDK       0.013700
     71 H2A          5.0690     0.6050    -4.0900 h1         1 PDK       0.013700
     72 H143         0.7390    -6.7020     1.1040 hc         1 PDK       0.062700
     73 H243         2.1320    -5.9310     1.8300 hc         1 PDK       0.062700
     74 H144        -0.7020    -5.8550     2.9700 hc         1 PDK       0.007700
     75 H244         0.6920    -5.0880     3.6960 hc         1 PDK       0.007700
     76 H158       -17.3940     1.4780    -0.9650 hc         1 PDK       0.037700
     77 H258       -16.9560     0.9430    -2.5720 hc         1 PDK       0.037700
     78 H159       -18.8300     3.2750    -1.9550 hc         1 PDK       0.035200
     79 H259       -18.3920     2.7390    -3.5620 hc         1 PDK       0.035200
     80 H1AX       -15.9300     3.1770    -3.0380 hc         1 PDK       0.034700
     81 H2AX       -16.3730     3.7170    -1.4330 hc         1 PDK       0.034700
     82 H1AZ       -14.9550     1.9110    -0.4340 hc         1 PDK       0.038200
     83 H2AZ       -14.5090     1.3730    -2.0390 hc         1 PDK       0.038200
     84 H1BB       -13.4610     3.5980    -2.4960 hc         1 PDK       0.034700
     85 H2BB       -13.9180     4.1450    -0.8970 hc         1 PDK       0.034700
     86 H1BD       -12.5260     2.3320     0.1220 hc         1 PDK       0.038700
     87 H2BD       -12.0650     1.7860    -1.4750 hc         1 PDK       0.038700
     88 H1BE         0.9680    -3.6520     1.6580 hc         1 PDK       0.085700
     89 H2BE        -0.4190    -4.4200     0.9260 hc         1 PDK       0.085700
     90 H1BF       -10.9910     3.9970    -1.9270 hc         1 PDK       0.035200
     91 H2BF       -11.4690     4.5590    -0.3390 hc         1 PDK       0.035200
     92 H1BG        -1.8560    -3.5930     2.8180 hc         1 PDK       0.002700
     93 H2BG        -0.4500    -2.8400     3.5380 hc         1 PDK       0.002700
     94 H1BH       -10.1080     2.7450     0.7150 hc         1 PDK       0.040700
     95 H2BH        -9.6290     2.1790    -0.8710 hc         1 PDK       0.040700
     96 H1BI        -0.1490    -1.4700     1.4540 hc         1 PDK       0.081700
     97 H2BI        -1.6080    -2.1480     0.7970 hc         1 PDK       0.081700
     98 H1BJ        -8.5310     4.3710    -1.3340 hc         1 PDK       0.046700
     99 H2BJ        -9.0310     4.9610     0.2380 hc         1 PDK       0.046700
    100 H1BK        -2.9040    -1.1960     2.7420 hc         1 PDK       0.026200
    101 H2BK        -1.4140    -0.5450     3.3930 hc         1 PDK       0.026200
    102 H1BL         3.0190     0.0170     3.2210 h1         1 PDK       0.032200
    103 H2BL         1.2950    -0.1870     3.4940 h1         1 PDK       0.032200
    104 H1BM         2.2640     1.6830     4.7650 h1         1 PDK       0.025200
    105 H2BM         2.8040     2.4620     3.2840 h1         1 PDK       0.025200
    106 H1BN        -7.6970     3.1360     1.3450 hc         1 PDK       0.076700
    107 H2BN        -7.2140     2.5380    -0.2180 hc         1 PDK       0.076700
    108 H1BO        -1.1010     0.8120     1.2840 hc         1 PDK       0.103200
    109 H2BO        -2.6260     0.2200     0.6860 hc         1 PDK       0.103200
    110 H1BP         6.6470    -2.6260    -2.0260 h1         1 PDK       0.046200
    111 H2BP         7.3420    -2.1630    -3.5590 h1         1 PDK       0.046200
    112 H1BQ         3.9940    -1.9530    -3.4100 h1         1 PDK       0.042200
    113 H2BQ         4.5810    -2.2440    -1.7860 h1         1 PDK       0.042200
    114 H1BR         8.1230     0.0180    -2.2720 h1         1 PDK       0.010700
    115 H2BR         7.6390    -0.8570    -0.8360 h1         1 PDK       0.010700
    116 H1BS         4.0110    -0.0690    -1.0190 h1         1 PDK       0.018200
    117 H2BS         3.5350     0.4960    -2.6090 h1         1 PDK       0.018200
    118 H1BT        -3.6590     4.7110     0.1170 h1         1 PDK       0.053700
    119 H2BT        -4.2970     5.6380     1.4790 h1         1 PDK       0.053700
    120 H1BU        -2.1040     5.6640     2.6970 h1         1 PDK       0.022700
    121 H2BU        -1.4480     4.9030     1.2500 h1         1 PDK       0.022700
    122 H1BW        10.4340    -0.3960    -3.0150 h1         1 PDK      -0.001550
    123 H2BW         9.3660    -1.4680    -3.8820 h1         1 PDK      -0.001550
    124 H1BX        10.2050    -0.3640    -0.4790 h1         1 PDK      -0.001550
    125 H2BX        11.0180    -1.8900    -0.7480 h1         1 PDK      -0.001550
    126 H1BY         1.9970    -1.3530    -3.7010 h1         1 PDK       0.022700
    127 H2BY         1.1280     0.0870    -3.2280 h1         1 PDK       0.022700
    128 H1BZ         0.5220    -0.4570    -0.5970 h1         1 PDK       0.044700
    129 H2BZ         1.5540     0.9450    -0.8500 h1         1 PDK       0.044700
    130 HNCA         1.2800     1.3820     1.2840 hn         1 PDK       0.364500
    131 HCM         -3.6670     3.7990     3.0350 h1         1 PDK       0.066700
    132 H68        -19.4010     0.4960    -3.0890 hc         1 PDK       0.037200
    133 H69        -19.8420     1.0340    -1.4840 hc         1 PDK       0.037200
    134 H70        -21.2850     2.8200    -2.4820 hc         1 PDK       0.034700
    135 H71        -20.8450     2.2800    -4.0850 hc         1 PDK       0.034700
    136 H72        -23.0510     1.3250    -3.4410 hc         1 PDK       0.028033
    137 H73        -21.8730     0.0270    -3.6060 hc         1 PDK       0.028033
    138 H74        -22.3420     0.5920    -2.0060 hc         1 PDK       0.028033
    139 H75          1.8420    -7.3350     3.8830 hc         1 PDK       0.016700
    140 H76          0.4470    -8.1050     3.1620 hc         1 PDK       0.016700
    141 H77          1.8900    -8.9730     1.3060 hc         1 PDK       0.052200
    142 H78          3.2840    -8.2040     2.0320 hc         1 PDK       0.052200
    143 H79          2.9810    -9.5960     4.0920 hc         1 PDK       0.022700
    144 H80          1.5860   -10.3640     3.3680 hc         1 PDK       0.022700
    145 H81          3.0340   -11.2400     1.5170 hc         1 PDK       0.046200
    146 H82          4.4260   -10.4750     2.2460 hc         1 PDK       0.046200
    147 H83          4.1150   -11.8670     4.3040 hc         1 PDK       0.025700
    148 H84          2.7220   -12.6310     3.5780 hc         1 PDK       0.025700
    149 H85          4.7370   -14.0760     3.3110 hc         1 PDK       0.025033
    150 H86          4.1780   -13.5350     1.7310 hc         1 PDK       0.025033
    151 H87          5.5810   -12.7760     2.4750 hc         1 PDK       0.025033
@<TRIPOS>BOND
     1     1     3 1   
     2     1     4 1   
     3     1    60 1   
     4     2     4 1   
     5     2    35 1   
     6     2    36 1   
     7     4    70 1   
     8     4    71 1   
     9     5     6 1   
    10     5    64 1   
    11     5    72 1   
    12     5    73 1   
    13     6    24 1   
    14     6    74 1   
    15     6    75 1   
    16     7     8 1   
    17     7    20 1   
    18     7    76 1   
    19     7    77 1   
    20     8    61 1   
    21     8    78 1   
    22     8    79 1   
    23     9    50 1   
    24    10    51 1   
    25    11    52 1   
    26    12    53 2   
    27    13    54 2   
    28    14    55 2   
    29    15    59 1   
    30    16    50 1   
    31    17    51 1   
    32    18    52 1   
    33    19    59 1   
    34    20    21 1   
    35    20    80 1   
    36    20    81 1   
    37    21    22 1   
    38    21    82 1   
    39    21    83 1   
    40    22    23 1   
    41    22    84 1   
    42    22    85 1   
    43    23    25 1   
    44    23    86 1   
    45    23    87 1   
    46    24    26 1   
    47    24    88 1   
    48    24    89 1   
    49    25    27 1   
    50    25    90 1   
    51    25    91 1   
    52    26    28 1   
    53    26    92 1   
    54    26    93 1   
    55    27    29 1   
    56    27    94 1   
    57    27    95 1   
    58    28    30 1   
    59    28    96 1   
    60    28    97 1   
    61    29    33 1   
    62    29    98 1   
    63    29    99 1   
    64    30    34 1   
    65    30   100 1   
    66    30   101 1   
    67    31    32 1   
    68    31    45 1   
    69    31   102 1   
    70    31   103 1   
    71    32    47 1   
    72    32   104 1   
    73    32   105 1   
    74    33    54 1   
    75    33   106 1   
    76    33   107 1   
    77    34    55 1   
    78    34   108 1   
    79    34   109 1   
    80    35    37 1   
    81    35   110 1   
    82    35   111 1   
    83    36    38 1   
    84    36   112 1   
    85    36   113 1   
    86    37    57 1   
    87    37   114 1   
    88    37   115 1   
    89    38    58 1   
    90    38   116 1   
    91    38   117 1   
    92    39    46 1   
    93    39    56 1   
    94    39   118 1   
    95    39   119 1   
    96    40    48 1   
    97    40    56 1   
    98    40   120 1   
    99    40   121 1   
   100    41    50 1   
   101    41    57 1   
   102    41   122 1   
   103    41   123 1   
   104    42    51 1   
   105    42    57 1   
   106    42   124 1   
   107    42   125 1   
   108    43    52 1   
   109    43    58 1   
   110    43   126 1   
   111    43   127 1   
   112    44    53 1   
   113    44    58 1   
   114    44   128 1   
   115    44   129 1   
   116    45    53 1   
   117    45   130 1   
   118    46    54 1   
   119    47    59 1   
   120    48    59 1   
   121    49    55 1   
   122    49    56 1   
   123    56   131 1   
   124    61    62 1   
   125    61   132 1   
   126    61   133 1   
   127    62    63 1   
   128    62   134 1   
   129    62   135 1   
   130    63   136 1   
   131    63   137 1   
   132    63   138 1   
   133    64    65 1   
   134    64   139 1   
   135    64   140 1   
   136    65    66 1   
   137    65   141 1   
   138    65   142 1   
   139    66    67 1   
   140    66   143 1   
   141    66   144 1   
   142    67    68 1   
   143    67   145 1   
   144    67   146 1   
   145    68    69 1   
   146    68   147 1   
   147    68   148 1   
   148    69   149 1   
   149    69   150 1   
   150    69   151 1   
@<TRIPOS>SUBSTRUCTURE
     1 PDK         1 TEMP              0 ****  ****    0 ROOT
