@<TRIPOS>MOLECULE
PDM
   36    37     1     0     0
SMALL
No Charge or Current Charge


@<TRIPOS>ATOM
      1 CP1         -0.0300     0.1640     2.3730 ca         1 PDM      -0.136000
      2 CP2          1.1180     0.7280     1.7800 ca         1 PDM      -0.046500
      3 CP3          1.1160     1.0680     0.4160 ca         1 PDM      -0.190000
      4 CP4         -0.0220     0.8460    -0.3690 ca         1 PDM       0.361000
      5 CP5         -1.1690     0.2890     0.2170 ca         1 PDM      -0.190000
      6 CP6         -1.1760    -0.0520     1.5810 ca         1 PDM      -0.046500
      7 CP7         -0.6080     0.4360    -2.7660 c3         1 PDM       0.426500
      8 CP8          0.3650     0.2540    -3.9540 c3         1 PDM      -0.089400
      9 CP9         -0.2050    -0.6050    -5.1170 c3         1 PDM      -0.206400
     10 C10          0.8580    -0.7900    -6.2120 c          1 PDM       0.718000
     11 C11         -1.0110     0.2720     4.6720 c          1 PDM       0.567000
     12 NP1         -0.0330    -0.1860     3.7770 n          1 PDM      -0.200000
     13 NP2          0.0020     1.1940    -1.7170 nu         1 PDM      -0.987200
     14 OP3         -1.6720     1.2540    -3.1140 oh         1 PDM      -0.673000
     15 OP4          1.6240    -1.7370    -6.1170 o          1 PDM      -0.738000
     16 OP5          0.9230     0.0460    -7.1000 o          1 PDM      -0.738000
     17 C12         -0.4620    -0.0880     6.0610 c5         1 PDM      -0.170900
     18 C14          0.9430    -1.0120     4.3550 c          1 PDM       0.567000
     19 C13          0.3890    -1.3460     5.7480 c5         1 PDM      -0.170900
     20 HP2          2.0090     0.9170     2.3740 ha         1 PDM       0.107000
     21 HP3          2.0060     1.5050    -0.0270 ha         1 PDM       0.121000
     22 HP5         -2.0610     0.1220    -0.3780 ha         1 PDM       0.121000
     23 HP6         -2.0710    -0.4930     2.0140 ha         1 PDM       0.107000
     24 HP7         -0.9750    -0.5390    -2.4110 h2         1 PDM       0.080700
     25 HP81         0.6630     1.2370    -4.3420 hc         1 PDM       0.050200
     26 HP82         1.2770    -0.2280    -3.5820 hc         1 PDM       0.050200
     27 HP91        -0.4670    -1.5730    -4.6730 hc         1 PDM       0.026700
     28 HP92        -1.0660    -0.0520    -5.5120 hc         1 PDM       0.026700
     29 HP2N         0.8690     1.6520    -1.9940 hn         1 PDM       0.478000
     30 HP3O        -1.5730     1.9450    -2.4290 ho         1 PDM       0.438000
     31 H121         0.2090     0.7190     6.3760 hc         1 PDM       0.079200
     32 H122        -1.2610    -0.2120     6.8000 hc         1 PDM       0.079200
     33 H131         1.1860    -1.5850     6.4620 hc         1 PDM       0.079200
     34 H132        -0.2830    -2.2070     5.6450 hc         1 PDM       0.079200
     35 OP2          2.0490    -1.2590     3.8920 o          1 PDM      -0.491000
     36 OP1         -2.1160     0.7090     4.3760 o          1 PDM      -0.491000
@<TRIPOS>BOND
     1     1     2 ar  
     2     1     6 ar  
     3     1    12 1   
     4     2     3 ar  
     5     2    20 1   
     6     3     4 ar  
     7     3    21 1   
     8     4     5 ar  
     9     4    13 1   
    10     5     6 ar  
    11     5    22 1   
    12     6    23 1   
    13     7     8 1   
    14     7    13 1   
    15     7    14 1   
    16     7    24 1   
    17     8     9 1   
    18     8    25 1   
    19     8    26 1   
    20     9    10 1   
    21     9    27 1   
    22     9    28 1   
    23    10    15 1   
    24    10    16 1   
    25    11    12 1   
    26    11    17 1   
    27    11    36 2   
    28    12    18 1   
    29    13    29 1   
    30    14    30 1   
    31    17    19 1   
    32    17    31 1   
    33    17    32 1   
    34    18    19 1   
    35    18    35 2   
    36    19    33 1   
    37    19    34 1   
@<TRIPOS>SUBSTRUCTURE
     1 PDM         1 TEMP              0 ****  ****    0 ROOT
