@<TRIPOS>MOLECULE
PDM
   36    37     1     0     0
SMALL
abcg2


@<TRIPOS>ATOM
      1 CP1          0.0930     0.0620     2.4400 ca         1 PDM      -0.136000
      2 CP2          1.0710     0.9170     1.9480 ca         1 PDM      -0.046500
      3 CP3          1.2170     1.0990     0.5880 ca         1 PDM      -0.190000
      4 CP4          0.3860     0.4320    -0.3280 ca         1 PDM       0.361000
      5 CP5         -0.6060    -0.4190     0.1850 ca         1 PDM      -0.190000
      6 CP6         -0.7380    -0.6010     1.5510 ca         1 PDM      -0.046500
      7 CP7         -0.2680     0.0920    -2.6970 c3         1 PDM       0.426500
      8 CP8          0.4130     0.2770    -4.0470 c3         1 PDM      -0.089400
      9 CP9         -0.3530    -0.3650    -5.1910 c3         1 PDM      -0.206400
     10 C10          0.2800    -0.1990    -6.5840 c          1 PDM       0.718000
     11 C11         -0.9410     0.6090     4.6090 c          1 PDM       0.567000
     12 NP1         -0.0580    -0.1240     3.8370 n          1 PDM      -0.200000
     13 NP2          0.5920     0.6060    -1.6690 nu         1 PDM      -0.987200
     14 OP3         -1.5640     0.6490    -2.6650 oh         1 PDM      -0.673000
     15 OP4         -0.3040    -0.7890    -7.5180 o          1 PDM      -0.738000
     16 OP5          1.3040     0.5040    -6.6820 o          1 PDM      -0.738000
     17 C12         -0.8220     0.1330     6.0340 c5         1 PDM      -0.170900
     18 C14          0.6620    -1.0580     4.5610 c          1 PDM       0.567000
     19 C13          0.2360    -0.9620     6.0020 c5         1 PDM      -0.170900
     20 HP2          1.7230     1.4440     2.6330 ha         1 PDM       0.107000
     21 HP3          1.9900     1.7630     0.2190 ha         1 PDM       0.121000
     22 HP5         -1.2870    -0.9400    -0.4730 ha         1 PDM       0.121000
     23 HP6         -1.5080    -1.2630     1.9270 ha         1 PDM       0.107000
     24 HP7         -0.4220    -0.9760    -2.5170 h2         1 PDM       0.080700
     25 HP81         0.5480     1.3480    -4.2340 hc         1 PDM       0.050200
     26 HP82         1.4160    -0.1520    -3.9840 hc         1 PDM       0.050200
     27 HP91        -0.4730    -1.4370    -4.9970 hc         1 PDM       0.026700
     28 HP92        -1.3710     0.0340    -5.2330 hc         1 PDM       0.026700
     29 HP2N         1.1900     1.3750    -1.9280 hn         1 PDM       0.478000
     30 HP3O        -1.5000     1.5750    -2.9240 ho         1 PDM       0.438000
     31 H121        -0.5460     0.9760     6.6690 hc         1 PDM       0.079200
     32 H122        -1.7950    -0.2220     6.3740 hc         1 PDM       0.079200
     33 H131         1.1060    -0.7330     6.6180 hc         1 PDM       0.079200
     34 H132        -0.1430    -1.9310     6.3280 hc         1 PDM       0.079200
     35 OP2          1.4810    -1.7990     4.0790 o          1 PDM      -0.491000
     36 OP1         -1.6640     1.4690     4.1750 o          1 PDM      -0.491000
@<TRIPOS>BOND
     1     1     2 ar  
     2     1     6 ar  
     3     1    12 1   
     4     2     3 ar  
     5     2    20 1   
     6     3     4 ar  
     7     3    21 1   
     8     4     5 ar  
     9     4    13 1   
    10     5     6 ar  
    11     5    22 1   
    12     6    23 1   
    13     7     8 1   
    14     7    13 1   
    15     7    14 1   
    16     7    24 1   
    17     8     9 1   
    18     8    25 1   
    19     8    26 1   
    20     9    10 1   
    21     9    27 1   
    22     9    28 1   
    23    10    15 1   
    24    10    16 1   
    25    11    12 1   
    26    11    17 1   
    27    11    36 2   
    28    12    18 1   
    29    13    29 1   
    30    14    30 1   
    31    17    19 1   
    32    17    31 1   
    33    17    32 1   
    34    18    19 1   
    35    18    35 2   
    36    19    33 1   
    37    19    34 1   
@<TRIPOS>SUBSTRUCTURE
     1 PDM         1 TEMP              0 ****  ****    0 ROOT
