@<TRIPOS>MOLECULE
PDN
   52    55     1     0     0
SMALL
No Charge or Current Charge


@<TRIPOS>ATOM
      1 C1           1.7490    -0.1020    -3.1860 c2         1 PDN      -0.150200
      2 C2           1.7880    -0.8480    -4.3130 ce         1 PDN      -0.298200
      3 C3           0.5840    -1.1760    -5.1110 c          1 PDN       0.566500
      4 C4          -0.6910    -0.6570    -4.5660 ce         1 PDN      -0.299200
      5 C5          -0.7720     0.0940    -3.4440 c2         1 PDN      -0.048400
      6 C6          -2.1220     0.5390    -2.8870 c6         1 PDN      -0.049200
      7 C7          -2.3150     0.0270    -1.4450 c6         1 PDN      -0.070400
      8 C8          -1.1440     0.4590    -0.5180 c6         1 PDN      -0.039700
      9 C9           0.2420     0.0440    -1.1360 c6         1 PDN      -0.150700
     10 C10          0.4640     0.5130    -2.6200 c6         1 PDN       0.021400
     11 C11          1.3950     0.2860    -0.1190 c          1 PDN       0.583100
     12 C12          1.1960    -0.3860     1.2480 c6         1 PDN      -0.168400
     13 C13         -0.1230     0.1390     1.8980 c5         1 PDN      -0.021000
     14 C14         -1.2990    -0.1650     0.9060 c5         1 PDN      -0.071700
     15 C15         -2.5510     0.2220     1.7400 c5         1 PDN      -0.064400
     16 C16         -2.1730    -0.1950     3.2060 c5         1 PDN      -0.095400
     17 C17         -0.6670    -0.6750     3.1480 c5         1 PDN       0.244200
     18 C18          0.0780     1.6670     2.2080 c3         1 PDN      -0.088100
     19 C19          0.6160     2.0620    -2.7600 c3         1 PDN      -0.077100
     20 C20          0.1210    -0.3040     4.4410 c2         1 PDN       0.018900
     21 C21          1.3490    -0.8130     4.6390 c2         1 PDN      -0.151900
     22 O1           0.6370    -1.8410    -6.1350 o          1 PDN      -0.529100
     23 O2           2.2750     1.1230    -0.2760 o          1 PDN      -0.524100
     24 O3          -0.6180    -2.0960     2.9640 oh         1 PDN      -0.660000
     25 O4          -0.3810     0.4950     5.3970 oh         1 PDN      -0.540100
     26 O5           2.0690    -0.5260     5.7520 oh         1 PDN      -0.565100
     27 HC1          2.6750     0.1160    -2.6490 ha         1 PDN       0.199000
     28 HC2          2.7260    -1.2470    -4.6940 ha         1 PDN       0.200000
     29 HC4         -1.5810    -0.9400    -5.1240 ha         1 PDN       0.196000
     30 HC61        -2.9400     0.1640    -3.5170 hc         1 PDN       0.056200
     31 HC62        -2.2030     1.6340    -2.9130 hc         1 PDN       0.056200
     32 HC71        -2.3940    -1.0690    -1.4630 hc         1 PDN       0.048700
     33 HC72        -3.2690     0.4010    -1.0510 hc         1 PDN       0.048700
     34 HC8         -1.1760     1.5530    -0.4210 hc         1 PDN       0.059700
     35 HC9          0.1630    -1.0520    -1.1540 hc         1 PDN       0.073700
     36 H121         2.0690    -0.2060     1.8870 hc         1 PDN       0.078200
     37 H122         1.0670    -1.4600     1.0650 hc         1 PDN       0.078200
     38 HC41        -1.3470    -1.2430     0.7000 hc         1 PDN       0.065700
     39 H151        -2.7650     1.2950     1.6740 hc         1 PDN       0.046200
     40 H152        -3.4500    -0.2990     1.3890 hc         1 PDN       0.046200
     41 H161        -2.3290     0.6640     3.8670 hc         1 PDN       0.059200
     42 H162        -2.8330    -0.9840     3.5840 hc         1 PDN       0.059200
     43 H181         0.2390     2.2620     1.3030 hc         1 PDN       0.044367
     44 H182        -0.7760     2.1140     2.7280 hc         1 PDN       0.044367
     45 H183         0.9530     1.8260     2.8500 hc         1 PDN       0.044367
     46 H191         0.6180     2.3560    -3.8170 hc         1 PDN       0.046700
     47 H192        -0.1960     2.6110    -2.2720 hc         1 PDN       0.046700
     48 H193         1.5550     2.4280    -2.3320 hc         1 PDN       0.046700
     49 HC12         1.8270    -1.4860     3.9200 h4         1 PDN       0.197000
     50 HO3         -0.8940    -2.4870     3.8200 ho         1 PDN       0.448000
     51 HO4          0.3360     0.5300     6.0720 ho         1 PDN       0.477000
     52 HO5          2.9340    -0.9990     5.7090 ho         1 PDN       0.463000
@<TRIPOS>BOND
     1     1     2 2   
     2     1    10 1   
     3     1    27 1   
     4     2     3 1   
     5     2    28 1   
     6     3     4 1   
     7     3    22 2   
     8     4     5 2   
     9     4    29 1   
    10     5     6 1   
    11     5    10 1   
    12     6     7 1   
    13     6    30 1   
    14     6    31 1   
    15     7     8 1   
    16     7    32 1   
    17     7    33 1   
    18     8     9 1   
    19     8    14 1   
    20     8    34 1   
    21     9    10 1   
    22     9    11 1   
    23     9    35 1   
    24    10    19 1   
    25    11    12 1   
    26    11    23 2   
    27    12    13 1   
    28    12    36 1   
    29    12    37 1   
    30    13    14 1   
    31    13    17 1   
    32    13    18 1   
    33    14    15 1   
    34    14    38 1   
    35    15    16 1   
    36    15    39 1   
    37    15    40 1   
    38    16    17 1   
    39    16    41 1   
    40    16    42 1   
    41    17    20 1   
    42    17    24 1   
    43    18    43 1   
    44    18    44 1   
    45    18    45 1   
    46    19    46 1   
    47    19    47 1   
    48    19    48 1   
    49    20    21 2   
    50    20    25 1   
    51    21    26 1   
    52    21    49 1   
    53    24    50 1   
    54    25    51 1   
    55    26    52 1   
@<TRIPOS>SUBSTRUCTURE
     1 PDN         1 TEMP              0 ****  ****    0 ROOT
