@<TRIPOS>MOLECULE
PDN
   52    55     1     0     0
SMALL
abcg2


@<TRIPOS>ATOM
      1 C1           1.6830    -0.0320    -3.1820 c2         1 PDN      -0.150200
      2 C2           1.7210    -0.7990    -4.2720 ce         1 PDN      -0.298200
      3 C3           0.5030    -1.1610    -4.9980 c          1 PDN       0.566500
      4 C4          -0.7430    -0.6230    -4.4620 ce         1 PDN      -0.299200
      5 C5          -0.7950     0.1500    -3.3680 c2         1 PDN      -0.048400
      6 C6          -2.1040     0.6160    -2.8220 c6         1 PDN      -0.049200
      7 C7          -2.2860     0.0770    -1.4050 c6         1 PDN      -0.070400
      8 C8          -1.1170     0.4460    -0.5010 c6         1 PDN      -0.039700
      9 C9           0.2320     0.0020    -1.1370 c6         1 PDN      -0.150700
     10 C10          0.4350     0.5470    -2.5870 c6         1 PDN       0.021400
     11 C11          1.3830     0.2450    -0.1660 c          1 PDN       0.583100
     12 C12          1.2150    -0.3860     1.1980 c6         1 PDN      -0.168400
     13 C13         -0.0930     0.1140     1.8080 c5         1 PDN      -0.021000
     14 C14         -1.2470    -0.2240     0.8580 c5         1 PDN      -0.071700
     15 C15         -2.4940     0.0510     1.6970 c5         1 PDN      -0.064400
     16 C16         -2.0640    -0.2420     3.1540 c5         1 PDN      -0.095400
     17 C17         -0.5580    -0.6070     3.1020 c5         1 PDN       0.244200
     18 C18          0.0250     1.6220     2.0540 c3         1 PDN      -0.088100
     19 C19          0.5720     2.0860    -2.6370 c3         1 PDN      -0.077100
     20 C20          0.2200    -0.2340     4.3440 c2         1 PDN       0.018900
     21 C21          1.2840    -0.9300     4.7530 c2         1 PDN      -0.151900
     22 O1           0.5290    -1.8700    -5.9950 o          1 PDN      -0.529100
     23 O2           2.3700     0.8880    -0.4420 o          1 PDN      -0.524100
     24 O3          -0.3990    -1.9900     2.8570 oh         1 PDN      -0.660000
     25 O4          -0.2160     0.8770     4.9920 oh         1 PDN      -0.540100
     26 O5           2.0120    -0.4950     5.8270 oh         1 PDN      -0.565100
     27 HC1          2.6140     0.2310    -2.6970 ha         1 PDN       0.199000
     28 HC2          2.6650    -1.1670    -4.6570 ha         1 PDN       0.200000
     29 HC4         -1.6570    -0.8830    -4.9860 ha         1 PDN       0.196000
     30 HC61        -2.9200     0.2800    -3.4630 hc         1 PDN       0.056200
     31 HC62        -2.1440     1.7100    -2.8050 hc         1 PDN       0.056200
     32 HC71        -2.3900    -1.0120    -1.4430 hc         1 PDN       0.048700
     33 HC72        -3.2130     0.4700    -0.9830 hc         1 PDN       0.048700
     34 HC8         -1.1180     1.5340    -0.3780 hc         1 PDN       0.059700
     35 HC9          0.1680    -1.0930    -1.2250 hc         1 PDN       0.073700
     36 H121         2.0770    -0.1370     1.8190 hc         1 PDN       0.078200
     37 H122         1.1850    -1.4720     1.0710 hc         1 PDN       0.078200
     38 HC41        -1.2030    -1.3030     0.6680 hc         1 PDN       0.065700
     39 H151        -2.8080     1.0930     1.5950 hc         1 PDN       0.046200
     40 H152        -3.3410    -0.5610     1.3840 hc         1 PDN       0.046200
     41 H161        -2.2460     0.6240     3.7870 hc         1 PDN       0.059200
     42 H162        -2.6290    -1.0660     3.5940 hc         1 PDN       0.059200
     43 H181         0.2410     2.1640     1.1330 hc         1 PDN       0.044367
     44 H182        -0.8830     2.0580     2.4700 hc         1 PDN       0.044367
     45 H183         0.8430     1.8390     2.7410 hc         1 PDN       0.044367
     46 H191         0.5020     2.4310    -3.6680 hc         1 PDN       0.046700
     47 H192        -0.2100     2.5810    -2.0640 hc         1 PDN       0.046700
     48 H193         1.5310     2.4050    -2.2390 hc         1 PDN       0.046700
     49 HC12         1.6220    -1.8150     4.2320 h4         1 PDN       0.197000
     50 HO3         -0.7800    -2.4720     3.5990 ho         1 PDN       0.448000
     51 HO4          0.3600     1.0520     5.7470 ho         1 PDN       0.477000
     52 HO5          2.3810    -1.2520     6.2920 ho         1 PDN       0.463000
@<TRIPOS>BOND
     1     1     2 2   
     2     1    10 1   
     3     1    27 1   
     4     2     3 1   
     5     2    28 1   
     6     3     4 1   
     7     3    22 2   
     8     4     5 2   
     9     4    29 1   
    10     5     6 1   
    11     5    10 1   
    12     6     7 1   
    13     6    30 1   
    14     6    31 1   
    15     7     8 1   
    16     7    32 1   
    17     7    33 1   
    18     8     9 1   
    19     8    14 1   
    20     8    34 1   
    21     9    10 1   
    22     9    11 1   
    23     9    35 1   
    24    10    19 1   
    25    11    12 1   
    26    11    23 2   
    27    12    13 1   
    28    12    36 1   
    29    12    37 1   
    30    13    14 1   
    31    13    17 1   
    32    13    18 1   
    33    14    15 1   
    34    14    38 1   
    35    15    16 1   
    36    15    39 1   
    37    15    40 1   
    38    16    17 1   
    39    16    41 1   
    40    16    42 1   
    41    17    20 1   
    42    17    24 1   
    43    18    43 1   
    44    18    44 1   
    45    18    45 1   
    46    19    46 1   
    47    19    47 1   
    48    19    48 1   
    49    20    21 2   
    50    20    25 1   
    51    21    26 1   
    52    21    49 1   
    53    24    50 1   
    54    25    51 1   
    55    26    52 1   
@<TRIPOS>SUBSTRUCTURE
     1 PDN         1 TEMP              0 ****  ****    0 ROOT
