@<TRIPOS>MOLECULE
PDO
   13    12     1     0     0
SMALL
bcc


@<TRIPOS>ATOM
      1 C1          -1.2330    -0.5090     0.0080 c3         1 PDO       0.141400
      2 O1          -2.3690     0.3280     0.0260 oh         1 PDO      -0.595800
      3 C2           0.0130     0.3550     0.0380 c3         1 PDO      -0.088400
      4 C3           1.2700    -0.4940     0.0250 c3         1 PDO       0.141400
      5 O3           2.3960     0.3570     0.0550 oh         1 PDO      -0.595800
      6 H11         -1.2260    -1.1900     0.8700 h1         1 PDO       0.013950
      7 H12         -1.2160    -1.1400    -0.8910 h1         1 PDO       0.013950
      8 HO1         -3.1510    -0.2300     0.0090 ho         1 PDO       0.404000
      9 H21          0.0150     1.0240    -0.8270 hc         1 PDO       0.066700
     10 H22          0.0030     0.9790     0.9370 hc         1 PDO       0.066700
     11 H31          1.2600    -1.1730     0.8880 h1         1 PDO       0.013950
     12 H32          1.2720    -1.1270    -0.8720 h1         1 PDO       0.013950
     13 HO3          3.1850    -0.1920     0.0420 ho         1 PDO       0.404000
@<TRIPOS>BOND
     1     1     2 1   
     2     1     3 1   
     3     1     6 1   
     4     1     7 1   
     5     2     8 1   
     6     3     4 1   
     7     3     9 1   
     8     3    10 1   
     9     4     5 1   
    10     4    11 1   
    11     4    12 1   
    12     5    13 1   
@<TRIPOS>SUBSTRUCTURE
     1 PDO         1 TEMP              0 ****  ****    0 ROOT
