@<TRIPOS>MOLECULE
PDO
   13    12     1     0     0
SMALL
No Charge or Current Charge


@<TRIPOS>ATOM
      1 C1          -1.2620    -0.5100     0.0090 c3         1 PDO       0.164600
      2 O1          -2.4170     0.3350     0.0250 oh         1 PDO      -0.658000
      3 C2           0.0130     0.3520     0.0390 c3         1 PDO      -0.088400
      4 C3           1.2990    -0.4950     0.0240 c3         1 PDO       0.164600
      5 O3           2.4430     0.3640     0.0540 oh         1 PDO      -0.658000
      6 H11         -1.2690    -1.1790     0.8800 h1         1 PDO       0.013950
      7 H12         -1.2590    -1.1320    -0.8960 h1         1 PDO       0.013950
      8 HO1         -3.2030    -0.2560     0.0040 ho         1 PDO       0.443000
      9 H21          0.0140     1.0250    -0.8260 hc         1 PDO       0.066700
     10 H22          0.0040     0.9790     0.9390 hc         1 PDO       0.066700
     11 H31          1.3040    -1.1630     0.8950 h1         1 PDO       0.013950
     12 H32          1.3140    -1.1160    -0.8810 h1         1 PDO       0.013950
     13 HO3          3.2370    -0.2170     0.0430 ho         1 PDO       0.443000
@<TRIPOS>BOND
     1     1     2 1   
     2     1     3 1   
     3     1     6 1   
     4     1     7 1   
     5     2     8 1   
     6     3     4 1   
     7     3     9 1   
     8     3    10 1   
     9     4     5 1   
    10     4    11 1   
    11     4    12 1   
    12     5    13 1   
@<TRIPOS>SUBSTRUCTURE
     1 PDO         1 TEMP              0 ****  ****    0 ROOT
