@<TRIPOS>MOLECULE
PDR
   39    42     1     0     0
SMALL
abcg2


@<TRIPOS>ATOM
      1 CL         -32.0810    57.7090   -29.5860 cl         1 PDR      -0.199000
      2 C1         -32.5880    63.5250   -31.9590 ca         1 PDR       0.383800
      3 C2         -32.7410    64.8720   -32.3660 ca         1 PDR      -0.107200
      4 C3         -32.4230    65.2530   -33.6630 ca         1 PDR      -0.086000
      5 C4         -31.9720    64.2560   -34.5110 ca         1 PDR       0.059100
      6 C5         -31.8520    62.9290   -34.0270 ca         1 PDR       0.536300
      7 N6         -32.1620    62.5670   -32.7980 nb         1 PDR      -0.671000
      8 C7         -33.0060    63.4500   -30.5830 cc         1 PDR      -0.201800
      9 C8         -33.3620    64.7420   -30.2320 cd         1 PDR      -0.136100
     10 N9         -33.2080    65.5910   -31.2930 na         1 PDR      -0.076700
     11 C10        -32.8570    60.2140   -28.8540 ca         1 PDR      -0.128800
     12 C11        -33.3660    61.0960   -27.8540 ca         1 PDR       0.378500
     13 N12        -33.4410    62.3410   -28.4180 na         1 PDR      -0.338400
     14 C13        -33.0100    62.2860   -29.7360 cc         1 PDR       0.034900
     15 C14        -32.6450    60.9850   -30.0310 cd         1 PDR      -0.190200
     16 C15        -33.0280    58.5220   -27.1630 ca         1 PDR      -0.189000
     17 C16        -33.5280    59.4920   -26.2880 ca         1 PDR       0.357900
     18 N17        -33.7080    60.7780   -26.6140 nb         1 PDR      -0.685000
     19 C18        -32.6910    58.8920   -28.4550 ca         1 PDR       0.202000
     20 C20        -33.4430    67.0230   -31.2820 c3         1 PDR       0.064900
     21 C22        -30.3420    61.1560   -34.4640 c3         1 PDR       0.151900
     22 O23        -31.6890    64.5350   -35.8230 os         1 PDR      -0.346100
     23 C24        -30.3020    64.7960   -36.0850 c3         1 PDR       0.150900
     24 H3         -32.5320    66.2660   -34.0290 ha         1 PDR       0.134000
     25 H8         -33.7270    65.1370   -29.2970 h4         1 PDR       0.214000
     26 HN12       -33.8080    63.1490   -27.9480 hn         1 PDR       0.354000
     27 H14        -32.2580    60.6470   -30.9750 ha         1 PDR       0.233000
     28 H15        -32.9260    57.5030   -26.8210 ha         1 PDR       0.135000
     29 H16        -33.8010    59.2080   -25.2790 h4         1 PDR       0.022100
     30 H20        -33.7580    67.3200   -30.2850 h1         1 PDR       0.054700
     31 H20A       -32.5310    67.5560   -31.5540 h1         1 PDR       0.054700
     32 H20B       -34.2310    67.2860   -31.9900 h1         1 PDR       0.054700
     33 H22        -30.1200    60.4750   -35.2820 h1         1 PDR       0.044033
     34 H22A       -29.4730    61.7840   -34.2560 h1         1 PDR       0.044033
     35 H22B       -30.6120    60.5840   -33.5740 h1         1 PDR       0.044033
     36 H24        -30.2140    64.9610   -37.1570 h1         1 PDR       0.037700
     37 H24A       -29.9710    65.6840   -35.5420 h1         1 PDR       0.037700
     38 H24B       -29.6890    63.9400   -35.7950 h1         1 PDR       0.037700
     39 O21        -31.4410    61.9700   -34.9080 os         1 PDR      -0.466300
@<TRIPOS>BOND
     1     1    19 1   
     2     2     3 ar  
     3     2     7 ar  
     4     2     8 1   
     5     3     4 ar  
     6     3    10 1   
     7     4     5 ar  
     8     4    24 1   
     9     5     6 ar  
    10     5    22 1   
    11     6     7 ar  
    12     6    39 1   
    13     8     9 2   
    14     8    14 1   
    15     9    10 1   
    16     9    25 1   
    17    10    20 1   
    18    11    12 ar  
    19    11    15 1   
    20    11    19 ar  
    21    12    13 1   
    22    12    18 ar  
    23    13    14 1   
    24    13    26 1   
    25    14    15 2   
    26    15    27 1   
    27    16    17 ar  
    28    16    19 ar  
    29    16    28 1   
    30    17    18 ar  
    31    17    29 1   
    32    20    30 1   
    33    20    31 1   
    34    20    32 1   
    35    21    33 1   
    36    21    34 1   
    37    21    35 1   
    38    21    39 1   
    39    22    23 1   
    40    23    36 1   
    41    23    37 1   
    42    23    38 1   
@<TRIPOS>SUBSTRUCTURE
     1 PDR         1 TEMP              0 ****  ****    0 ROOT
