@<TRIPOS>MOLECULE
PDR
   39    42     1     0     0
SMALL
No Charge or Current Charge


@<TRIPOS>ATOM
      1 Cl         -31.5110    58.0150   -29.7250 cl         1 PDR      -0.199000
      2 C1         -32.4420    63.7530   -31.8600 ca         1 PDR       0.383800
      3 C2         -32.7020    65.0430   -32.2320 ca         1 PDR      -0.107200
      4 C3         -32.2780    65.5160   -33.4800 ca         1 PDR      -0.086000
      5 C4         -31.5860    64.6110   -34.3120 ca         1 PDR       0.059100
      6 C5         -31.3600    63.2660   -33.8290 ca         1 PDR       0.536300
      7 N6         -31.7890    62.8480   -32.6080 nb         1 PDR      -0.671000
      8 C7         -32.9970    63.5770   -30.5430 cc         1 PDR      -0.201800
      9 C8         -33.5770    64.7910   -30.1760 cd         1 PDR      -0.136100
     10 N9         -33.3930    65.7120   -31.2320 na         1 PDR      -0.076700
     11 C10        -32.7170    60.3250   -28.8020 ca         1 PDR      -0.128800
     12 C11        -33.4030    61.0800   -27.8760 ca         1 PDR       0.378500
     13 N12        -33.5760    62.3420   -28.4130 na         1 PDR      -0.338400
     14 C13        -33.0050    62.4210   -29.6940 cc         1 PDR       0.034900
     15 C14        -32.4700    61.1740   -29.9430 cd         1 PDR      -0.190200
     16 C15        -32.7870    58.4660   -27.3150 ca         1 PDR      -0.189000
     17 C16        -33.4860    59.2980   -26.4160 ca         1 PDR       0.357900
     18 N17        -33.7960    60.5940   -26.6850 nb         1 PDR      -0.685000
     19 C18        -32.3860    58.9920   -28.5520 ca         1 PDR       0.202000
     20 C20        -33.8260    67.1140   -31.3150 c3         1 PDR       0.064900
     21 C22        -30.4430    60.9970   -34.1620 c3         1 PDR       0.151900
     22 O23        -31.1800    65.1170   -35.5450 os         1 PDR      -0.346100
     23 C24        -30.4630    64.3590   -36.5360 c3         1 PDR       0.150900
     24 H3         -32.4710    66.5360   -33.8010 ha         1 PDR       0.134000
     25 H8         -34.0960    65.0690   -29.2630 h4         1 PDR       0.214000
     26 HN12       -34.0520    63.0920   -27.9340 hn         1 PDR       0.354000
     27 H14        -31.9490    60.8850   -30.8510 ha         1 PDR       0.233000
     28 H15        -32.5650    57.4380   -27.0500 ha         1 PDR       0.135000
     29 H16        -33.8090    58.9150   -25.4480 h4         1 PDR       0.022100
     30 H20        -34.3500    67.3960   -30.3930 h1         1 PDR       0.054700
     31 H20A       -32.9500    67.7620   -31.4440 h1         1 PDR       0.054700
     32 H20B       -34.5020    67.2410   -32.1690 h1         1 PDR       0.054700
     33 H22        -29.8960    60.4330   -34.9280 h1         1 PDR       0.044033
     34 H22A       -29.8410    60.9920   -33.2430 h1         1 PDR       0.044033
     35 H22B       -31.3870    60.4730   -33.9650 h1         1 PDR       0.044033
     36 H24        -30.2630    64.9840   -37.4160 h1         1 PDR       0.037700
     37 H24A       -29.4990    64.0130   -36.1440 h1         1 PDR       0.037700
     38 H24B       -31.0500    63.4930   -36.8680 h1         1 PDR       0.037700
     39 O21        -30.6860    62.3460   -34.6110 os         1 PDR      -0.466300
@<TRIPOS>BOND
     1     1    19 1   
     2     2     3 ar  
     3     2     7 ar  
     4     2     8 1   
     5     3     4 ar  
     6     3    10 1   
     7     4     5 ar  
     8     4    24 1   
     9     5     6 ar  
    10     5    22 1   
    11     6     7 ar  
    12     6    39 1   
    13     8     9 2   
    14     8    14 1   
    15     9    10 1   
    16     9    25 1   
    17    10    20 1   
    18    11    12 ar  
    19    11    15 1   
    20    11    19 ar  
    21    12    13 1   
    22    12    18 ar  
    23    13    14 1   
    24    13    26 1   
    25    14    15 2   
    26    15    27 1   
    27    16    17 ar  
    28    16    19 ar  
    29    16    28 1   
    30    17    18 ar  
    31    17    29 1   
    32    20    30 1   
    33    20    31 1   
    34    20    32 1   
    35    21    33 1   
    36    21    34 1   
    37    21    35 1   
    38    21    39 1   
    39    22    23 1   
    40    23    36 1   
    41    23    37 1   
    42    23    38 1   
@<TRIPOS>SUBSTRUCTURE
     1 PDR         1 TEMP              0 ****  ****    0 ROOT
