@<TRIPOS>MOLECULE
PDS
   61    65     1     0     0
SMALL
No Charge or Current Charge


@<TRIPOS>ATOM
      1 O14          0.1600     0.2360    -0.1730 o          1 PDS      -0.482000
      2 C6           0.9310     0.4260     0.7530 c          1 PDS       0.565200
      3 N13          2.1220     1.0570     0.6520 ns         1 PDS      -0.495500
      4 C12          2.8080     1.2570     1.7990 c          1 PDS       0.565200
      5 O20          3.9130     1.7670     1.8830 o          1 PDS      -0.483000
      6 C2           0.7860     0.1760     2.2080 cc         1 PDS      -0.062200
      7 C5           1.9510     0.6270     2.8370 cd         1 PDS      -0.066200
      8 C11          2.2980     0.3960     4.2310 cd         1 PDS      -0.112200
      9 C18          3.1690     1.2030     5.0630 ca         1 PDS      -0.066800
     10 C24          3.7220     2.4830     4.8980 ca         1 PDS      -0.054000
     11 C29          4.4980     3.0080     5.9540 ca         1 PDS      -0.136000
     12 C31          4.6850     2.2660     7.1450 ca         1 PDS      -0.093000
     13 C28          4.0850     0.9980     7.2940 ca         1 PDS      -0.129000
     14 C23          3.3250     0.5030     6.2260 ca         1 PDS      -0.054200
     15 N25          2.6190    -0.6820     6.1480 na         1 PDS      -0.219700
     16 C19          1.9760    -0.7960     4.9010 cc         1 PDS      -0.012300
     17 C26          1.3370    -2.0900     4.4570 c3         1 PDS      -0.046900
     18 C1          -0.4490    -0.2720     2.8320 cc         1 PDS      -0.114200
     19 C3          -1.4290    -1.2010     2.3170 ca         1 PDS      -0.065800
     20 C8          -1.4130    -2.0220     1.1760 ca         1 PDS      -0.055000
     21 C16         -2.5100    -2.8780     0.9510 ca         1 PDS      -0.136000
     22 C7          -2.4530    -1.2660     3.2240 ca         1 PDS      -0.052200
     23 C15         -3.5580    -2.1120     3.0230 ca         1 PDS      -0.128000
     24 C21         -3.5840    -2.9170     1.8670 ca         1 PDS      -0.096000
     25 N9          -2.2010    -0.4250     4.2960 na         1 PDS      -0.085700
     26 C4          -0.9660     0.2200     4.0420 cd         1 PDS      -0.004300
     27 C10         -0.4960     1.3700     4.9060 c3         1 PDS      -0.047900
     28 C17         -3.1230    -0.2400     5.4330 c3         1 PDS       0.073600
     29 C22         -4.2620     0.7550     5.1290 c3         1 PDS      -0.102400
     30 C27         -5.2180     0.9410     6.3260 c3         1 PDS       0.168800
     31 N30         -6.2420     2.0000     6.1440 n3         1 PDS      -0.711600
     32 C32         -6.9640     2.2940     7.4030 c3         1 PDS       0.149100
     33 C33         -7.1760     1.7470     5.0200 c3         1 PDS       0.149100
     34 HN13         2.4770     1.3740    -0.2370 hn         1 PDS       0.347500
     35 H24          3.5470     3.0690     4.0010 ha         1 PDS       0.121000
     36 H29          4.9450     3.9950     5.8560 ha         1 PDS       0.113000
     37 H31          5.2810     2.6820     7.9550 ha         1 PDS       0.111000
     38 H28          4.2040     0.4270     8.2120 ha         1 PDS       0.112000
     39 HN25         2.6140    -1.3950     6.8680 hn         1 PDS       0.349000
     40 H261         0.2840    -2.1400     4.7560 hc         1 PDS       0.057033
     41 H262         1.4030    -2.2260     3.3720 hc         1 PDS       0.057033
     42 H263         1.8440    -2.9470     4.9140 hc         1 PDS       0.057033
     43 H8          -0.5710    -2.0310     0.4910 ha         1 PDS       0.121000
     44 H16         -2.5240    -3.5200     0.0730 ha         1 PDS       0.112000
     45 H15         -4.3740    -2.1570     3.7390 ha         1 PDS       0.112000
     46 H21         -4.4260    -3.5820     1.6890 ha         1 PDS       0.110000
     47 H101         0.0350     1.0120     5.7950 hc         1 PDS       0.057367
     48 H102         0.1630     2.0510     4.3570 hc         1 PDS       0.057367
     49 H103        -1.3400     1.9770     5.2530 hc         1 PDS       0.057367
     50 H171        -3.5490    -1.2140     5.7040 h1         1 PDS       0.056700
     51 H172        -2.5490     0.1150     6.2980 h1         1 PDS       0.056700
     52 H221        -4.8200     0.3950     4.2580 hc         1 PDS       0.063700
     53 H222        -3.8300     1.7270     4.8590 hc         1 PDS       0.063700
     54 H271        -5.7060    -0.0200     6.5390 h1         1 PDS       0.027700
     55 H272        -4.6020     1.1880     7.2020 h1         1 PDS       0.027700
     56 H321        -7.5440     1.4220     7.7350 h1         1 PDS       0.031867
     57 H322        -7.6570     3.1350     7.2660 h1         1 PDS       0.031867
     58 H323        -6.2610     2.5650     8.2010 h1         1 PDS       0.031867
     59 H331        -6.6440     1.6960     4.0620 h1         1 PDS       0.031867
     60 H332        -7.9150     2.5560     4.9410 h1         1 PDS       0.031867
     61 H333        -7.7190     0.8020     5.1660 h1         1 PDS       0.031867
@<TRIPOS>BOND
     1     1     2 2   
     2     2     3 1   
     3     2     6 1   
     4     3     4 1   
     5     3    34 1   
     6     4     5 2   
     7     4     7 1   
     8     6     7 2   
     9     6    18 1   
    10     7     8 1   
    11     8     9 1   
    12     8    16 2   
    13     9    10 ar  
    14     9    14 ar  
    15    10    11 ar  
    16    10    35 1   
    17    11    12 ar  
    18    11    36 1   
    19    12    13 ar  
    20    12    37 1   
    21    13    14 ar  
    22    13    38 1   
    23    14    15 1   
    24    15    16 1   
    25    15    39 1   
    26    16    17 1   
    27    17    40 1   
    28    17    41 1   
    29    17    42 1   
    30    18    19 1   
    31    18    26 2   
    32    19    20 ar  
    33    19    22 ar  
    34    20    21 ar  
    35    20    43 1   
    36    21    24 ar  
    37    21    44 1   
    38    22    23 ar  
    39    22    25 1   
    40    23    24 ar  
    41    23    45 1   
    42    24    46 1   
    43    25    26 1   
    44    25    28 1   
    45    26    27 1   
    46    27    47 1   
    47    27    48 1   
    48    27    49 1   
    49    28    29 1   
    50    28    50 1   
    51    28    51 1   
    52    29    30 1   
    53    29    52 1   
    54    29    53 1   
    55    30    31 1   
    56    30    54 1   
    57    30    55 1   
    58    31    32 1   
    59    31    33 1   
    60    32    56 1   
    61    32    57 1   
    62    32    58 1   
    63    33    59 1   
    64    33    60 1   
    65    33    61 1   
@<TRIPOS>SUBSTRUCTURE
     1 PDS         1 TEMP              0 ****  ****    0 ROOT
