@<TRIPOS>MOLECULE
PDS
   61    65     1     0     0
SMALL
bcc


@<TRIPOS>ATOM
      1 O14         -0.0040     0.7220    -0.0750 o          1 PDS      -0.557500
      2 C6           0.8620     0.7160     0.7640 c          1 PDS       0.707700
      3 N13          2.1680     1.1090     0.5730 ns         1 PDS      -0.629500
      4 C12          2.8920     1.0160     1.7390 c          1 PDS       0.707700
      5 O20          4.0660     1.2630     1.8610 o          1 PDS      -0.558500
      6 C2           0.7410     0.3320     2.2050 cc         1 PDS      -0.062200
      7 C5           1.9470     0.5170     2.7860 cd         1 PDS      -0.066200
      8 C11          2.3790     0.2320     4.1340 cd         1 PDS      -0.112200
      9 C18          3.1210     1.0900     5.0160 ca         1 PDS      -0.066800
     10 C24          3.6370     2.3860     4.9220 ca         1 PDS      -0.072000
     11 C29          4.2900     2.9280     6.0140 ca         1 PDS      -0.154000
     12 C31          4.4370     2.2050     7.2070 ca         1 PDS      -0.111000
     13 C28          3.9240     0.9270     7.3330 ca         1 PDS      -0.147000
     14 C23          3.2660     0.3900     6.2310 ca         1 PDS      -0.054200
     15 N25          2.6500    -0.8220     6.0790 na         1 PDS      -0.169400
     16 C19          2.1130    -0.9280     4.8340 cc         1 PDS      -0.012300
     17 C26          1.3960    -2.1570     4.4130 c3         1 PDS      -0.046900
     18 C1          -0.5130    -0.0780     2.7900 cc         1 PDS      -0.114200
     19 C3          -1.4110    -1.0900     2.3110 ca         1 PDS      -0.065800
     20 C8          -1.4170    -1.9540     1.2130 ca         1 PDS      -0.073000
     21 C16         -2.4560    -2.8560     1.0770 ca         1 PDS      -0.154000
     22 C7          -2.4500    -1.1830     3.2580 ca         1 PDS      -0.052200
     23 C15         -3.5000    -2.0870     3.1260 ca         1 PDS      -0.146000
     24 C21         -3.4900    -2.9190     2.0210 ca         1 PDS      -0.114000
     25 N9          -2.1950    -0.2750     4.2550 na         1 PDS      -0.056400
     26 C4          -1.0380     0.3940     3.9750 cd         1 PDS      -0.004300
     27 C10         -0.5350     1.4690     4.8660 c3         1 PDS      -0.047900
     28 C17         -3.0610    -0.0380     5.3910 c3         1 PDS       0.044300
     29 C22         -4.2280     0.8880     5.0670 c3         1 PDS      -0.102400
     30 C27         -5.1340     1.0500     6.2800 c3         1 PDS       0.168800
     31 N30         -6.2370     1.9660     6.0600 n3         1 PDS      -0.711600
     32 C32         -6.8760     2.3100     7.3120 c3         1 PDS       0.149100
     33 C33         -7.2070     1.4520     5.1160 c3         1 PDS       0.149100
     34 HN13         2.5470     1.4150    -0.3110 hn         1 PDS       0.347500
     35 H24          3.5310     2.9670     4.0150 ha         1 PDS       0.139000
     36 H29          4.6960     3.9290     5.9480 ha         1 PDS       0.131000
     37 H31          4.9570     2.6550     8.0430 ha         1 PDS       0.129000
     38 H28          4.0240     0.3690     8.2560 ha         1 PDS       0.130000
     39 HN25         2.6210    -1.5500     6.7740 hn         1 PDS       0.298700
     40 H261         0.3450    -2.1240     4.7100 hc         1 PDS       0.057033
     41 H262         1.4230    -2.2720     3.3310 hc         1 PDS       0.057033
     42 H263         1.8400    -3.0440     4.8640 hc         1 PDS       0.057033
     43 H8          -0.6240    -1.9240     0.4780 ha         1 PDS       0.139000
     44 H16         -2.4720    -3.5270     0.2270 ha         1 PDS       0.130000
     45 H15         -4.2990    -2.1480     3.8540 ha         1 PDS       0.130000
     46 H21         -4.2930    -3.6320     1.8870 ha         1 PDS       0.128000
     47 H101        -0.1210     1.0620     5.7920 hc         1 PDS       0.057367
     48 H102         0.2540     2.0370     4.3780 hc         1 PDS       0.057367
     49 H103        -1.3290     2.1670     5.1380 hc         1 PDS       0.057367
     50 H171        -3.4280    -1.0040     5.7430 h1         1 PDS       0.056700
     51 H172        -2.4590     0.3720     6.2020 h1         1 PDS       0.056700
     52 H221        -4.7810     0.4780     4.2200 hc         1 PDS       0.063700
     53 H222        -3.8540     1.8680     4.7600 hc         1 PDS       0.063700
     54 H271        -5.4930     0.0560     6.6040 h1         1 PDS       0.027700
     55 H272        -4.5360     1.4450     7.1060 h1         1 PDS       0.027700
     56 H321        -7.3240     1.4460     7.8270 h1         1 PDS       0.031867
     57 H322        -7.6700     3.0370     7.1370 h1         1 PDS       0.031867
     58 H323        -6.1530     2.7640     7.9910 h1         1 PDS       0.031867
     59 H331        -6.7630     1.3100     4.1310 h1         1 PDS       0.031867
     60 H332        -8.0230     2.1660     5.0030 h1         1 PDS       0.031867
     61 H333        -7.6450     0.4900     5.4290 h1         1 PDS       0.031867
@<TRIPOS>BOND
     1     1     2 2   
     2     2     3 1   
     3     2     6 1   
     4     3     4 1   
     5     3    34 1   
     6     4     5 2   
     7     4     7 1   
     8     6     7 2   
     9     6    18 1   
    10     7     8 1   
    11     8     9 1   
    12     8    16 2   
    13     9    10 ar  
    14     9    14 ar  
    15    10    11 ar  
    16    10    35 1   
    17    11    12 ar  
    18    11    36 1   
    19    12    13 ar  
    20    12    37 1   
    21    13    14 ar  
    22    13    38 1   
    23    14    15 1   
    24    15    16 1   
    25    15    39 1   
    26    16    17 1   
    27    17    40 1   
    28    17    41 1   
    29    17    42 1   
    30    18    19 1   
    31    18    26 2   
    32    19    20 ar  
    33    19    22 ar  
    34    20    21 ar  
    35    20    43 1   
    36    21    24 ar  
    37    21    44 1   
    38    22    23 ar  
    39    22    25 1   
    40    23    24 ar  
    41    23    45 1   
    42    24    46 1   
    43    25    26 1   
    44    25    28 1   
    45    26    27 1   
    46    27    47 1   
    47    27    48 1   
    48    27    49 1   
    49    28    29 1   
    50    28    50 1   
    51    28    51 1   
    52    29    30 1   
    53    29    52 1   
    54    29    53 1   
    55    30    31 1   
    56    30    54 1   
    57    30    55 1   
    58    31    32 1   
    59    31    33 1   
    60    32    56 1   
    61    32    57 1   
    62    32    58 1   
    63    33    59 1   
    64    33    60 1   
    65    33    61 1   
@<TRIPOS>SUBSTRUCTURE
     1 PDS         1 TEMP              0 ****  ****    0 ROOT
