@<TRIPOS>MOLECULE
PDT
   13    12     1     0     0
SMALL
abcg2


@<TRIPOS>ATOM
      1 C2          -0.1190    -0.0060     0.0190 c3         1 PDT      -0.061400
      2 C1           0.7380    -0.0200     1.2770 c3         1 PDT       0.082600
      3 S1          -0.3570    -0.0120     2.7360 sh         1 PDT      -0.449800
      4 C3           0.7580    -0.0120    -1.2250 c3         1 PDT       0.082600
      5 S2          -0.3130     0.0280    -2.7000 sh         1 PDT      -0.449800
      6 H21         -0.7760    -0.8790     0.0090 hc         1 PDT       0.071200
      7 H22         -0.7590     0.8810     0.0180 hc         1 PDT       0.071200
      8 H11          1.3860     0.8560     1.3060 h1         1 PDT       0.057700
      9 H12          1.3640    -0.9110     1.3000 h1         1 PDT       0.057700
     10 HS1          0.5940    -0.0400     3.6750 hs         1 PDT       0.211800
     11 H31          1.4180     0.8560    -1.2320 h1         1 PDT       0.057700
     12 H32          1.3740    -0.9110    -1.2500 h1         1 PDT       0.057700
     13 HS2          0.6510    -0.0240    -3.6260 hs         1 PDT       0.211800
@<TRIPOS>BOND
     1     1     2 1   
     2     1     4 1   
     3     1     6 1   
     4     1     7 1   
     5     2     3 1   
     6     2     8 1   
     7     2     9 1   
     8     3    10 1   
     9     4     5 1   
    10     4    11 1   
    11     4    12 1   
    12     5    13 1   
@<TRIPOS>SUBSTRUCTURE
     1 PDT         1 TEMP              0 ****  ****    0 ROOT
