@<TRIPOS>MOLECULE
PDT
   13    12     1     0     0
SMALL
No Charge or Current Charge


@<TRIPOS>ATOM
      1 C2          -0.1420    -0.0050     0.0190 c3         1 PDT      -0.061400
      2 C1           0.6990    -0.0240     1.3090 c3         1 PDT       0.082600
      3 S1          -0.3310    -0.0130     2.8490 sh         1 PDT      -0.449800
      4 C3           0.7190    -0.0140    -1.2580 c3         1 PDT       0.082600
      5 S2          -0.2860     0.0080    -2.8140 sh         1 PDT      -0.449800
      6 H21         -0.8080    -0.8760     0.0100 hc         1 PDT       0.071200
      7 H22         -0.7790     0.8880     0.0170 hc         1 PDT       0.071200
      8 H11          1.3580     0.8540     1.3290 h1         1 PDT       0.057700
      9 H12          1.3290    -0.9230     1.3220 h1         1 PDT       0.057700
     10 HS1          0.7070    -0.0330     3.7220 hs         1 PDT       0.211800
     11 H31          1.3790     0.8640    -1.2610 h1         1 PDT       0.057700
     12 H32          1.3500    -0.9130    -1.2680 h1         1 PDT       0.057700
     13 HS2          0.7650    -0.0060    -3.6710 hs         1 PDT       0.211800
@<TRIPOS>BOND
     1     1     2 1   
     2     1     4 1   
     3     1     6 1   
     4     1     7 1   
     5     2     3 1   
     6     2     8 1   
     7     2     9 1   
     8     3    10 1   
     9     4     5 1   
    10     4    11 1   
    11     4    12 1   
    12     5    13 1   
@<TRIPOS>SUBSTRUCTURE
     1 PDT         1 TEMP              0 ****  ****    0 ROOT
