@<TRIPOS>MOLECULE
PDW
   20    20     1     0     0
SMALL
abcg2


@<TRIPOS>ATOM
      1 CM         -26.3230   -39.1070     0.8130 c3         1 PDW       0.151900
      2 O          -23.7500   -38.8240     0.2070 o          1 PDW      -0.488000
      3 CG         -22.1870   -36.2590    -1.3500 c5         1 PDW      -0.090400
      4 CB         -22.3480   -36.3310     0.1650 c5         1 PDW      -0.085400
      5 CD         -23.3670   -35.3850    -1.7520 c5         1 PDW       0.162800
      6 OXT        -25.6680   -37.8410     0.7790 os         1 PDW      -0.438100
      7 C          -24.3840   -37.8260     0.4430 c          1 PDW       0.603100
      8 CA         -23.8630   -36.4010     0.3540 c5         1 PDW       0.119500
      9 N          -24.4420   -35.8150    -0.8610 n7         1 PDW      -0.879400
     10 HM1        -27.3520   -38.9050     1.0980 h1         1 PDW       0.046367
     11 HM2        -26.3100   -39.5920    -0.1630 h1         1 PDW       0.046367
     12 HM3        -25.8710   -39.7730     1.5480 h1         1 PDW       0.046367
     13 HG2        -21.2320   -35.8360    -1.6600 hc         1 PDW       0.060200
     14 HG3        -22.2740   -37.2530    -1.7930 hc         1 PDW       0.060200
     15 HB2        -21.8130   -37.1590     0.6270 hc         1 PDW       0.058700
     16 HB3        -21.9780   -35.4090     0.6190 hc         1 PDW       0.058700
     17 HD2        -23.1080   -34.3280    -1.6150 h1         1 PDW       0.038700
     18 HD3        -23.6480   -35.5190    -2.7990 h1         1 PDW       0.038700
     19 HA         -24.1790   -35.8630     1.2530 h1         1 PDW       0.063700
     20 H          -25.0840   -35.0680    -0.6460 hn         1 PDW       0.428000
@<TRIPOS>BOND
     1     1     6 1   
     2     1    10 1   
     3     1    11 1   
     4     1    12 1   
     5     2     7 2   
     6     3     4 1   
     7     3     5 1   
     8     3    13 1   
     9     3    14 1   
    10     4     8 1   
    11     4    15 1   
    12     4    16 1   
    13     5     9 1   
    14     5    17 1   
    15     5    18 1   
    16     6     7 1   
    17     7     8 1   
    18     8     9 1   
    19     8    19 1   
    20     9    20 1   
@<TRIPOS>SUBSTRUCTURE
     1 PDW         1 TEMP              0 ****  ****    0 ROOT
