@<TRIPOS>MOLECULE
PDW
   20    20     1     0     0
SMALL
No Charge or Current Charge


@<TRIPOS>ATOM
      1 CM         -26.5390   -38.9090     1.3440 c3         1 PDW       0.151900
      2 O          -23.9250   -39.1420     0.5450 o          1 PDW      -0.488000
      3 CG         -21.9480   -35.5800    -1.1130 c5         1 PDW      -0.090400
      4 CB         -22.2900   -36.8690    -0.3040 c5         1 PDW      -0.085400
      5 CD         -23.2980   -35.1760    -1.7850 c5         1 PDW       0.162800
      6 OXT        -25.7710   -37.8090     0.8220 os         1 PDW      -0.438100
      7 C          -24.4700   -38.0460     0.4450 c          1 PDW       0.603100
      8 CA         -23.8180   -36.7120    -0.0890 c5         1 PDW       0.119500
      9 N          -24.2360   -36.2720    -1.4580 n7         1 PDW      -0.879400
     10 HM1        -27.5530   -38.5780     1.6010 h1         1 PDW       0.046367
     11 HM2        -26.6210   -39.7150     0.6040 h1         1 PDW       0.046367
     12 HM3        -26.0730   -39.3160     2.2520 h1         1 PDW       0.046367
     13 HG2        -21.5880   -34.7780    -0.4580 hc         1 PDW       0.060200
     14 HG3        -21.1620   -35.7650    -1.8540 hc         1 PDW       0.060200
     15 HB2        -22.0570   -37.7680    -0.8890 hc         1 PDW       0.058700
     16 HB3        -21.7350   -36.9370     0.6380 hc         1 PDW       0.058700
     17 HD2        -23.6600   -34.2280    -1.3610 h1         1 PDW       0.038700
     18 HD3        -23.2010   -35.0390    -2.8710 h1         1 PDW       0.038700
     19 HA         -24.0280   -35.9250     0.6510 h1         1 PDW       0.063700
     20 H          -25.2080   -35.9310    -1.4540 hn         1 PDW       0.428000
@<TRIPOS>BOND
     1     1     6 1   
     2     1    10 1   
     3     1    11 1   
     4     1    12 1   
     5     2     7 2   
     6     3     4 1   
     7     3     5 1   
     8     3    13 1   
     9     3    14 1   
    10     4     8 1   
    11     4    15 1   
    12     4    16 1   
    13     5     9 1   
    14     5    17 1   
    15     5    18 1   
    16     6     7 1   
    17     7     8 1   
    18     8     9 1   
    19     8    19 1   
    20     9    20 1   
@<TRIPOS>SUBSTRUCTURE
     1 PDW         1 TEMP              0 ****  ****    0 ROOT
