@<TRIPOS>MOLECULE
PDX
   30    30     1     0     0
SMALL
No Charge or Current Charge


@<TRIPOS>ATOM
      1 C1          -1.8470    -0.5460     0.9340 c6         1 PDX       0.349300
      2 C2          -0.8840     0.1670    -0.0870 c6         1 PDX       0.204300
      3 C3           0.5880     0.0480     0.4360 c6         1 PDX       0.237300
      4 C4           0.6660     0.6260     1.8960 c6         1 PDX       0.122300
      5 C5          -0.3530    -0.1070     2.8200 c6         1 PDX       0.137300
      6 C6          -0.3860     0.4870     4.2690 c3         1 PDX       0.159600
      7 O1          -1.6290    -1.9560     1.0290 oh         1 PDX      -0.640000
      8 O2          -1.0010    -0.4220    -1.4100 os         1 PDX      -0.544700
      9 O3           1.4860     0.7920    -0.4280 os         1 PDX      -0.578700
     10 O4           2.0020     0.5510     2.4440 oh         1 PDX      -0.680000
     11 O5          -1.6880    -0.0030     2.2560 os         1 PDX      -0.497000
     12 O6          -1.3660    -0.1360     5.1220 oh         1 PDX      -0.709000
     13 O1S         -2.0430    -0.6550    -3.6200 o          1 PDX      -0.716533
     14 O2S         -3.3260     0.3040    -1.7390 o          1 PDX      -0.716533
     15 O3S         -1.4780     1.5850    -2.7450 o          1 PDX      -0.716533
     16 O1X          3.5800    -0.1040     0.4150 o          1 PDX      -0.711533
     17 O2X          3.5310     1.0930    -1.7460 o          1 PDX      -0.711533
     18 O3X          2.5070    -1.1480    -1.5440 o          1 PDX      -0.711533
     19 S           -2.0520     0.2610    -2.4700 s6         1 PDX       1.504300
     20 S1           2.9000     0.0960    -0.8710 s6         1 PDX       1.507300
     21 H1          -2.8840    -0.3670     0.6130 h2         1 PDX       0.080700
     22 H2          -1.1410     1.2350    -0.1310 h1         1 PDX       0.058700
     23 H3           0.8620    -1.0190     0.4500 h1         1 PDX       0.076700
     24 H4           0.3640     1.6830     1.8460 h1         1 PDX       0.039700
     25 H5          -0.0710    -1.1680     2.8990 h1         1 PDX       0.063700
     26 H6C1        -0.5880     1.5640     4.1940 h1         1 PDX       0.014700
     27 H6C2         0.6110     0.3740     4.7160 h1         1 PDX       0.014700
     28 HA          -2.2190    -2.2550     1.7510 ho         1 PDX       0.419000
     29 HB           2.6200     0.3560     1.6830 ho         1 PDX       0.470000
     30 H6          -1.3550     0.3560     5.9750 ho         1 PDX       0.475000
@<TRIPOS>BOND
     1     1     2 1   
     2     1     7 1   
     3     1    11 1   
     4     1    21 1   
     5     2     3 1   
     6     2     8 1   
     7     2    22 1   
     8     3     4 1   
     9     3     9 1   
    10     3    23 1   
    11     4     5 1   
    12     4    10 1   
    13     4    24 1   
    14     5     6 1   
    15     5    11 1   
    16     5    25 1   
    17     6    12 1   
    18     6    26 1   
    19     6    27 1   
    20     7    28 1   
    21     8    19 1   
    22     9    20 1   
    23    10    29 1   
    24    12    30 1   
    25    13    19 1   
    26    14    19 1   
    27    15    19 1   
    28    16    20 1   
    29    17    20 1   
    30    18    20 1   
@<TRIPOS>SUBSTRUCTURE
     1 PDX         1 TEMP              0 ****  ****    0 ROOT
