@<TRIPOS>MOLECULE
PDX
   30    30     1     0     0
SMALL
abcg2


@<TRIPOS>ATOM
      1 C1          -1.8190    -0.5490     1.0560 c6         1 PDX       0.349300
      2 C2          -0.8590     0.0600     0.0360 c6         1 PDX       0.204300
      3 C3           0.5850    -0.0300     0.5200 c6         1 PDX       0.237300
      4 C4           0.6860     0.6060     1.9030 c6         1 PDX       0.122300
      5 C5          -0.3460    -0.0280     2.8480 c6         1 PDX       0.137300
      6 C6          -0.3710     0.6690     4.1920 c3         1 PDX       0.159600
      7 O1          -1.5950    -1.9190     1.1060 oh         1 PDX      -0.640000
      8 O2          -0.9880    -0.6120    -1.1980 os         1 PDX      -0.544700
      9 O3           1.4150     0.6960    -0.3670 os         1 PDX      -0.578700
     10 O4           1.9930     0.4230     2.3830 oh         1 PDX      -0.680000
     11 O5          -1.6480     0.0750     2.2990 os         1 PDX      -0.497000
     12 O6          -1.2400    -0.0270     5.0530 oh         1 PDX      -0.709000
     13 O1S         -1.7090    -0.8510    -3.4650 o          1 PDX      -0.716533
     14 O2S         -3.0720     0.5050    -1.9270 o          1 PDX      -0.716533
     15 O3S         -0.9200     1.3610    -2.7130 o          1 PDX      -0.716533
     16 O1X          3.4100    -0.7800    -0.2510 o          1 PDX      -0.711533
     17 O2X          3.2190     1.0560    -1.8800 o          1 PDX      -0.711533
     18 O3X          1.8800    -0.9940    -2.1440 o          1 PDX      -0.711533
     19 S           -1.7310     0.1780    -2.4290 s6         1 PDX       1.504300
     20 S1           2.5740    -0.0860    -1.2320 s6         1 PDX       1.507300
     21 H1          -2.8500    -0.3220     0.7630 h2         1 PDX       0.080700
     22 H2          -1.1150     1.1230    -0.0560 h1         1 PDX       0.058700
     23 H3           0.8920    -1.0810     0.5900 h1         1 PDX       0.076700
     24 H4           0.4460     1.6740     1.7990 h1         1 PDX       0.039700
     25 H5          -0.0720    -1.0810     3.0040 h1         1 PDX       0.063700
     26 H6C1        -0.6840     1.7120     4.0490 h1         1 PDX       0.014700
     27 H6C2         0.6500     0.6910     4.5900 h1         1 PDX       0.014700
     28 HA          -2.3320    -2.3410     1.5620 ho         1 PDX       0.419000
     29 HB           2.2190     1.1610     2.9550 ho         1 PDX       0.470000
     30 H6          -1.2130     0.4040     5.9120 ho         1 PDX       0.475000
@<TRIPOS>BOND
     1     1     2 1   
     2     1     7 1   
     3     1    11 1   
     4     1    21 1   
     5     2     3 1   
     6     2     8 1   
     7     2    22 1   
     8     3     4 1   
     9     3     9 1   
    10     3    23 1   
    11     4     5 1   
    12     4    10 1   
    13     4    24 1   
    14     5     6 1   
    15     5    11 1   
    16     5    25 1   
    17     6    12 1   
    18     6    26 1   
    19     6    27 1   
    20     7    28 1   
    21     8    19 1   
    22     9    20 1   
    23    10    29 1   
    24    12    30 1   
    25    13    19 1   
    26    14    19 1   
    27    15    19 1   
    28    16    20 1   
    29    17    20 1   
    30    18    20 1   
@<TRIPOS>SUBSTRUCTURE
     1 PDX         1 TEMP              0 ****  ****    0 ROOT
