@<TRIPOS>MOLECULE
PDY
   53    56     1     0     0
SMALL
abcg2


@<TRIPOS>ATOM
      1 C25         -5.3670    -1.4280    -1.3160 c6         1 PDY      -0.087400
      2 C26         -6.7140    -0.8290    -1.7090 c6         1 PDY      -0.111400
      3 C23         -7.4060    -0.2140    -0.4960 c6         1 PDY       0.146800
      4 N12         -6.5860     0.7530     0.2160 n7         1 PDY      -0.842400
      5 C22         -5.2950     0.2060     0.5890 c6         1 PDY       0.130800
      6 C15         -4.5130    -0.3940    -0.5900 c6         1 PDY       0.198500
      7 N10         -3.2720    -0.9970    -0.1580 nu         1 PDY      -0.927100
      8 C4          -2.1440    -0.3030     0.1030 cc         1 PDY       0.672900
      9 C3          -0.9970    -1.0230     0.5940 cc         1 PDY      -0.304300
     10 C14         -1.0610    -2.5110     0.7570 c3         1 PDY      -0.025800
     11 N6          -2.1380     0.9900    -0.1480 nd         1 PDY      -0.770000
     12 C5          -1.0080     1.6590     0.1040 cd         1 PDY       0.439500
     13 C8          -0.6730     3.0020     0.0010 cc         1 PDY      -0.418600
     14 C11          0.6320     3.0730     0.4980 cc         1 PDY       0.388500
     15 N7           1.1090     1.9020     0.8850 nd         1 PDY      -0.570100
     16 N2           0.1080     1.0450     0.6260 na         1 PDY       0.064900
     17 C1           0.1330    -0.3030     0.8730 cd         1 PDY       0.394000
     18 N9           1.2740    -0.8150     1.4300 nu         1 PDY      -0.968000
     19 C13          2.5580    -0.6520     0.8720 ca         1 PDY       0.257000
     20 C17          3.6720    -0.8200     1.6910 ca         1 PDY      -0.091500
     21 C20          4.9500    -0.7050     1.1780 ca         1 PDY      -0.151000
     22 C18          2.7560    -0.3630    -0.4700 ca         1 PDY      -0.091500
     23 C19          4.0370    -0.2200    -0.9890 ca         1 PDY      -0.151000
     24 C16          5.1480    -0.3920    -0.1680 ca         1 PDY       0.132100
     25 O21          6.4280    -0.2810    -0.5780 os         1 PDY      -0.349100
     26 C24          6.6860    -0.0020    -1.9460 c3         1 PDY       0.164600
     27 C27          8.1820     0.0790    -2.1350 c3         1 PDY      -0.094100
     28 H25         -5.5330    -2.2880    -0.6550 hc         1 PDY       0.044700
     29 H25A        -4.8370    -1.8010    -2.1950 hc         1 PDY       0.044700
     30 H26         -6.5650    -0.0580    -2.4720 hc         1 PDY       0.047200
     31 H26A        -7.3500    -1.5960    -2.1590 hc         1 PDY       0.047200
     32 H23         -8.3390     0.2710    -0.7930 h1         1 PDY       0.053200
     33 H23A        -7.6770    -1.0120     0.2050 h1         1 PDY       0.053200
     34 HN12        -6.4430     1.5650    -0.3740 hn         1 PDY       0.410000
     35 H22         -4.7000     0.9870     1.0650 h1         1 PDY       0.060700
     36 H22A        -5.4510    -0.5800     1.3370 h1         1 PDY       0.060700
     37 H15         -4.2710     0.4140    -1.2860 h1         1 PDY       0.083700
     38 HN10        -3.3250    -1.9490     0.1660 hn         1 PDY       0.490000
     39 H14         -1.4440    -2.9900    -0.1460 hc         1 PDY       0.038700
     40 H14A        -0.0840    -2.9500     0.9440 hc         1 PDY       0.038700
     41 H14B        -1.7080    -2.8090     1.5860 hc         1 PDY       0.038700
     42 H8          -1.2950     3.8020    -0.3630 ha         1 PDY       0.223000
     43 H11          1.2500     3.9530     0.5990 h4         1 PDY       0.041800
     44 HN9          1.1450    -1.6650     1.9560 hn         1 PDY       0.493000
     45 H17          3.5380    -1.0420     2.7430 ha         1 PDY       0.119500
     46 H20          5.8060    -0.8430     1.8250 ha         1 PDY       0.123500
     47 H18          1.9110    -0.2550    -1.1400 ha         1 PDY       0.119500
     48 H19          4.1410     0.0130    -2.0400 ha         1 PDY       0.123500
     49 H24          6.2630    -0.7900    -2.5790 h1         1 PDY       0.033200
     50 H24A         6.2130     0.9420    -2.2360 h1         1 PDY       0.033200
     51 H27          8.6170     0.8750    -1.5310 hc         1 PDY       0.047033
     52 H27A         8.6690    -0.8610    -1.8760 hc         1 PDY       0.047033
     53 H27B         8.4030     0.2940    -3.1800 hc         1 PDY       0.047033
@<TRIPOS>BOND
     1     1     2 1   
     2     1     6 1   
     3     1    28 1   
     4     1    29 1   
     5     2     3 1   
     6     2    30 1   
     7     2    31 1   
     8     3     4 1   
     9     3    32 1   
    10     3    33 1   
    11     4     5 1   
    12     4    34 1   
    13     5     6 1   
    14     5    35 1   
    15     5    36 1   
    16     6     7 1   
    17     6    37 1   
    18     7     8 1   
    19     7    38 1   
    20     8     9 1   
    21     8    11 2   
    22     9    10 1   
    23     9    17 2   
    24    10    39 1   
    25    10    40 1   
    26    10    41 1   
    27    11    12 1   
    28    12    13 2   
    29    12    16 1   
    30    13    14 1   
    31    13    42 1   
    32    14    15 2   
    33    14    43 1   
    34    15    16 1   
    35    16    17 1   
    36    17    18 1   
    37    18    19 1   
    38    18    44 1   
    39    19    20 ar  
    40    19    22 ar  
    41    20    21 ar  
    42    20    45 1   
    43    21    24 ar  
    44    21    46 1   
    45    22    23 ar  
    46    22    47 1   
    47    23    24 ar  
    48    23    48 1   
    49    24    25 1   
    50    25    26 1   
    51    26    27 1   
    52    26    49 1   
    53    26    50 1   
    54    27    51 1   
    55    27    52 1   
    56    27    53 1   
@<TRIPOS>SUBSTRUCTURE
     1 PDY         1 TEMP              0 ****  ****    0 ROOT
