@<TRIPOS>MOLECULE
PDY
   53    56     1     0     0
SMALL
No Charge or Current Charge


@<TRIPOS>ATOM
      1 C25         -5.5600    -1.5100    -1.0500 c6         1 PDY      -0.087400
      2 C26         -6.9880    -1.0360    -1.4280 c6         1 PDY      -0.111400
      3 C23         -7.6900    -0.3590    -0.2250 c6         1 PDY       0.146800
      4 N12         -6.8840     0.7710     0.2970 n7         1 PDY      -0.842400
      5 C22         -5.5040     0.3530     0.6910 c6         1 PDY       0.130800
      6 C15         -4.7250    -0.3360    -0.4790 c6         1 PDY       0.198500
      7 N10         -3.4160    -0.8540    -0.0220 nu         1 PDY      -0.927100
      8 C4          -2.2500    -0.1480     0.0620 cc         1 PDY       0.672900
      9 C3          -1.0630    -0.9040     0.4450 cc         1 PDY      -0.304300
     10 C14         -1.2010    -2.4040     0.7090 c3         1 PDY      -0.025800
     11 N6          -2.3570     1.1390    -0.2020 nd         1 PDY      -0.770000
     12 C5          -1.1200     1.6900    -0.0560 cd         1 PDY       0.439500
     13 C8          -0.8990     3.0130    -0.1760 cc         1 PDY      -0.418600
     14 C11          0.4720     3.1910     0.1280 cc         1 PDY       0.388500
     15 N7           1.1250     2.0730     0.4340 nd         1 PDY      -0.570100
     16 N2           0.0920     1.1460     0.2760 na         1 PDY       0.064900
     17 C1           0.1580    -0.2350     0.5370 cd         1 PDY       0.394000
     18 N9           1.3260    -0.8750     0.9130 nu         1 PDY      -0.968000
     19 C13          2.6660    -0.7340     0.5330 ca         1 PDY       0.257000
     20 C17          3.6730    -1.2680     1.3570 ca         1 PDY      -0.091500
     21 C20          5.0270    -1.1660     0.9880 ca         1 PDY      -0.151000
     22 C18          3.0310    -0.1230    -0.6830 ca         1 PDY      -0.091500
     23 C19          4.3840    -0.0200    -1.0580 ca         1 PDY      -0.151000
     24 C16          5.3900    -0.5410    -0.2150 ca         1 PDY       0.132100
     25 O21          6.7330    -0.4710    -0.5260 os         1 PDY      -0.349100
     26 C24          7.2080     0.1490    -1.7330 c3         1 PDY       0.164600
     27 C27          8.7410     0.0430    -1.7370 c3         1 PDY      -0.094100
     28 H25         -5.6320    -2.3180    -0.3080 hc         1 PDY       0.044700
     29 H25A        -5.0630    -1.9340    -1.9330 hc         1 PDY       0.044700
     30 H26         -6.9360    -0.3340    -2.2710 hc         1 PDY       0.047200
     31 H26A        -7.5860    -1.8910    -1.7710 hc         1 PDY       0.047200
     32 H23         -8.6830     0.0040    -0.5330 h1         1 PDY       0.053200
     33 H23A        -7.8450    -1.1010     0.5730 h1         1 PDY       0.053200
     34 HN12        -6.8090     1.4820    -0.4420 hn         1 PDY       0.410000
     35 H22         -4.9390     1.2320     1.0360 h1         1 PDY       0.060700
     36 H22A        -5.5660    -0.3460     1.5390 h1         1 PDY       0.060700
     37 H15         -4.5920     0.4030    -1.2860 h1         1 PDY       0.083700
     38 HN10        -3.3100    -1.8450     0.1600 hn         1 PDY       0.490000
     39 H14         -1.6070    -2.9220    -0.1690 hc         1 PDY       0.038700
     40 H14A        -0.2500    -2.8950     0.9410 hc         1 PDY       0.038700
     41 H14B        -1.8700    -2.5930     1.5580 hc         1 PDY       0.038700
     42 H8          -1.6100     3.7890    -0.4220 ha         1 PDY       0.223000
     43 H11          1.0150     4.1270     0.1490 h4         1 PDY       0.041800
     44 HN9          1.1520    -1.6530     1.5470 hn         1 PDY       0.493000
     45 H17          3.4080    -1.7560     2.2910 ha         1 PDY       0.119500
     46 H20          5.7970    -1.5750     1.6370 ha         1 PDY       0.123500
     47 H18          2.2650     0.2640    -1.3490 ha         1 PDY       0.119500
     48 H19          4.6290     0.4610    -2.0000 ha         1 PDY       0.123500
     49 H24          6.8050    -0.3610    -2.6180 h1         1 PDY       0.033200
     50 H24A         6.9150     1.2070    -1.7700 h1         1 PDY       0.033200
     51 H27          9.1660     0.5570    -0.8670 hc         1 PDY       0.047033
     52 H27A         9.0560    -1.0070    -1.7130 hc         1 PDY       0.047033
     53 H27B         9.1510     0.5050    -2.6430 hc         1 PDY       0.047033
@<TRIPOS>BOND
     1     1     2 1   
     2     1     6 1   
     3     1    28 1   
     4     1    29 1   
     5     2     3 1   
     6     2    30 1   
     7     2    31 1   
     8     3     4 1   
     9     3    32 1   
    10     3    33 1   
    11     4     5 1   
    12     4    34 1   
    13     5     6 1   
    14     5    35 1   
    15     5    36 1   
    16     6     7 1   
    17     6    37 1   
    18     7     8 1   
    19     7    38 1   
    20     8     9 1   
    21     8    11 2   
    22     9    10 1   
    23     9    17 2   
    24    10    39 1   
    25    10    40 1   
    26    10    41 1   
    27    11    12 1   
    28    12    13 2   
    29    12    16 1   
    30    13    14 1   
    31    13    42 1   
    32    14    15 2   
    33    14    43 1   
    34    15    16 1   
    35    16    17 1   
    36    17    18 1   
    37    18    19 1   
    38    18    44 1   
    39    19    20 ar  
    40    19    22 ar  
    41    20    21 ar  
    42    20    45 1   
    43    21    24 ar  
    44    21    46 1   
    45    22    23 ar  
    46    22    47 1   
    47    23    24 ar  
    48    23    48 1   
    49    24    25 1   
    50    25    26 1   
    51    26    27 1   
    52    26    49 1   
    53    26    50 1   
    54    27    51 1   
    55    27    52 1   
    56    27    53 1   
@<TRIPOS>SUBSTRUCTURE
     1 PDY         1 TEMP              0 ****  ****    0 ROOT
