@<TRIPOS>MOLECULE
PDZ
   35    37     1     0     0
SMALL
bcc


@<TRIPOS>ATOM
      1 C1           1.6710    -2.8110     0.9270 ca         1 PDZ      -0.098000
      2 C2           2.6190    -3.6560     0.3720 ca         1 PDZ      -0.155000
      3 C3           3.4760    -3.1670    -0.6070 ca         1 PDZ      -0.098000
      4 C4           3.3880    -1.8500    -1.0270 ca         1 PDZ      -0.169000
      5 C5           2.4330    -1.0140    -0.4610 ca         1 PDZ       0.130100
      6 C6           1.5680    -1.4860     0.5190 ca         1 PDZ      -0.169000
      7 O7           2.4180     0.2750    -0.9280 os         1 PDZ      -0.229200
      8 C8           1.4970     1.1390    -0.4340 ca         1 PDZ       0.061100
      9 C9           1.8410     2.0750     0.5330 ca         1 PDZ       0.041400
     10 C10          0.9010     2.9750     1.0060 ca         1 PDZ      -0.132000
     11 C11         -0.3990     2.9130     0.5270 ca         1 PDZ      -0.088000
     12 C12         -0.7820     1.9840    -0.4320 ca         1 PDZ      -0.109300
     13 C13          0.1930     1.1230    -0.9020 ca         1 PDZ       0.150900
     14 C14         -2.1960     1.8740    -0.9110 c3         1 PDZ      -0.042400
     15 CL15         3.4570     2.0910     1.1290 cl         1 PDZ      -0.070400
     16 F16         -0.1260     0.2080    -1.8210 f          1 PDZ      -0.120900
     17 C17         -2.9030     0.6470    -0.4020 cc         1 PDZ       0.343600
     18 C18         -4.2380     0.3670    -0.8320 cc         1 PDZ      -0.182600
     19 C19         -4.8730    -0.7290    -0.3700 cd         1 PDZ      -0.210200
     20 C20         -4.2040    -1.6160     0.5580 c          1 PDZ       0.672700
     21 N21         -2.9320    -1.2040     0.8670 ns         1 PDZ      -0.286900
     22 N22         -2.2910    -0.1300     0.4250 nd         1 PDZ      -0.413300
     23 O23         -4.6790    -2.6350     1.0430 o          1 PDZ      -0.614500
     24 H1           0.9970    -3.1780     1.6900 ha         1 PDZ       0.131500
     25 H2           2.6910    -4.6860     0.6970 ha         1 PDZ       0.134000
     26 H3           4.2220    -3.8140    -1.0500 ha         1 PDZ       0.131500
     27 H4           4.0540    -1.4660    -1.7890 ha         1 PDZ       0.146500
     28 H6           0.8180    -0.8490     0.9690 ha         1 PDZ       0.146500
     29 H10          1.1750     3.7090     1.7500 ha         1 PDZ       0.156000
     30 H11         -1.1370     3.6020     0.9180 ha         1 PDZ       0.141000
     31 H14         -2.7540     2.7560    -0.5890 hc         1 PDZ       0.069200
     32 H14A        -2.2440     1.8770    -2.0040 hc         1 PDZ       0.069200
     33 H18         -4.7250     1.0400    -1.5260 ha         1 PDZ       0.147000
     34 H19         -5.8820    -0.9740    -0.6730 ha         1 PDZ       0.165000
     35 HN21        -2.4000    -1.7670     1.5170 hn         1 PDZ       0.353500
@<TRIPOS>BOND
     1     1     2 ar  
     2     1     6 ar  
     3     1    24 1   
     4     2     3 ar  
     5     2    25 1   
     6     3     4 ar  
     7     3    26 1   
     8     4     5 ar  
     9     4    27 1   
    10     5     6 ar  
    11     5     7 1   
    12     6    28 1   
    13     7     8 1   
    14     8     9 ar  
    15     8    13 ar  
    16     9    10 ar  
    17     9    15 1   
    18    10    11 ar  
    19    10    29 1   
    20    11    12 ar  
    21    11    30 1   
    22    12    13 ar  
    23    12    14 1   
    24    13    16 1   
    25    14    17 1   
    26    14    31 1   
    27    14    32 1   
    28    17    18 1   
    29    17    22 2   
    30    18    19 2   
    31    18    33 1   
    32    19    20 1   
    33    19    34 1   
    34    20    21 1   
    35    20    23 2   
    36    21    22 1   
    37    21    35 1   
@<TRIPOS>SUBSTRUCTURE
     1 PDZ         1 TEMP              0 ****  ****    0 ROOT
