@<TRIPOS>MOLECULE
PDZ
   35    37     1     0     0
SMALL
No Charge or Current Charge


@<TRIPOS>ATOM
      1 C1           1.7540    -3.0920     0.2740 ca         1 PDZ      -0.080000
      2 C2           2.5730    -3.7980    -0.6240 ca         1 PDZ      -0.137000
      3 C3           3.4080    -3.1010    -1.5140 ca         1 PDZ      -0.080000
      4 C4           3.4200    -1.6950    -1.5080 ca         1 PDZ      -0.151000
      5 C5           2.5960    -0.9850    -0.6200 ca         1 PDZ       0.130100
      6 C6           1.7660    -1.6860     0.2800 ca         1 PDZ      -0.151000
      7 O7           2.6380     0.3920    -0.6380 os         1 PDZ      -0.229200
      8 C8           1.5900     1.1750    -0.1950 ca         1 PDZ       0.061100
      9 C9           1.7990     2.0850     0.8590 ca         1 PDZ       0.133000
     10 C10          0.7390     2.8790     1.3230 ca         1 PDZ      -0.114000
     11 C11         -0.5340     2.7750     0.7360 ca         1 PDZ      -0.070000
     12 C12         -0.7560     1.8790    -0.3280 ca         1 PDZ      -0.109300
     13 C13          0.3140     1.0820    -0.7940 ca         1 PDZ       0.186000
     14 C14         -2.1530     1.7750    -0.9420 c3         1 PDZ      -0.042400
     15 Cl15         3.3820     2.2290     1.6230 cl         1 PDZ      -0.162000
     16 F16          0.1160     0.2260    -1.8250 f          1 PDZ      -0.156000
     17 C17         -3.0430     0.8100    -0.2020 cc         1 PDZ       0.343600
     18 C18         -2.9590    -0.5930    -0.5280 cc         1 PDZ      -0.232600
     19 C19         -3.7660    -1.4900     0.1540 cd         1 PDZ      -0.260200
     20 C20         -4.7020    -1.0310     1.2010 c          1 PDZ       0.530200
     21 N21         -4.6570     0.3410     1.3880 ns         1 PDZ      -0.219900
     22 N22         -3.8710     1.2760     0.7350 nd         1 PDZ      -0.413300
     23 O23         -5.4380    -1.7700     1.8370 o          1 PDZ      -0.539000
     24 H1           1.1120    -3.6340     0.9660 ha         1 PDZ       0.113500
     25 H2           2.5630    -4.8860    -0.6270 ha         1 PDZ       0.116000
     26 H3           4.0450    -3.6490    -2.2060 ha         1 PDZ       0.113500
     27 H4           4.0660    -1.1540    -2.1960 ha         1 PDZ       0.128500
     28 H6           1.1360    -1.1520     0.9860 ha         1 PDZ       0.128500
     29 H10          0.9030     3.5750     2.1420 ha         1 PDZ       0.138000
     30 H11         -1.3490     3.3910     1.1110 ha         1 PDZ       0.123000
     31 H14         -2.6230     2.7660    -0.9550 hc         1 PDZ       0.069200
     32 H14A        -2.0940     1.4820    -1.9970 hc         1 PDZ       0.069200
     33 H18         -2.2670    -0.9210    -1.2980 ha         1 PDZ       0.197000
     34 H19         -3.7590    -2.5580    -0.0330 ha         1 PDZ       0.215000
     35 HN21        -5.2930     0.6810     2.1040 hn         1 PDZ       0.353500
@<TRIPOS>BOND
     1     1     2 ar  
     2     1     6 ar  
     3     1    24 1   
     4     2     3 ar  
     5     2    25 1   
     6     3     4 ar  
     7     3    26 1   
     8     4     5 ar  
     9     4    27 1   
    10     5     6 ar  
    11     5     7 1   
    12     6    28 1   
    13     7     8 1   
    14     8     9 ar  
    15     8    13 ar  
    16     9    10 ar  
    17     9    15 1   
    18    10    11 ar  
    19    10    29 1   
    20    11    12 ar  
    21    11    30 1   
    22    12    13 ar  
    23    12    14 1   
    24    13    16 1   
    25    14    17 1   
    26    14    31 1   
    27    14    32 1   
    28    17    18 1   
    29    17    22 2   
    30    18    19 2   
    31    18    33 1   
    32    19    20 1   
    33    19    34 1   
    34    20    21 1   
    35    20    23 2   
    36    21    22 1   
    37    21    35 1   
@<TRIPOS>SUBSTRUCTURE
     1 PDZ         1 TEMP              0 ****  ****    0 ROOT
