@<TRIPOS>MOLECULE
PE0
   17    18     1     0     0
SMALL
bcc


@<TRIPOS>ATOM
      1 C1          -0.5800     0.0000    -0.5620 ca         1 PE0       0.143500
      2 C4          -1.4440    -0.0100     0.6190 c          1 PE0       0.635000
      3 O4          -2.6560    -0.0130     0.6070 o          1 PE0      -0.565500
      4 N2          -0.7320    -0.0180     1.7990 ns         1 PE0      -0.527400
      5 C3           0.6340    -0.0180     1.8770 cc         1 PE0       0.752800
      6 N6           1.1620    -0.0440     3.0990 nv         1 PE0      -0.942800
      7 N1           1.4110    -0.0090     0.8280 nd         1 PE0      -0.776700
      8 C2           0.8160    -0.0020    -0.3840 ca         1 PE0       0.592000
      9 N3           1.6210     0.0070    -1.4600 nb         1 PE0      -0.642000
     10 C6           1.0440     0.0180    -2.6390 ca         1 PE0       0.343900
     11 C5          -0.3480     0.0190    -2.8040 ca         1 PE0       0.238900
     12 N4          -1.1500     0.0100    -1.7620 nb         1 PE0      -0.557000
     13 HN2         -1.2740    -0.0310     2.6540 hn         1 PE0       0.326500
     14 HN61         2.1610     0.0180     3.1960 hn         1 PE0       0.457300
     15 HN62         0.6040     0.0500     3.9300 hn         1 PE0       0.457300
     16 H6           1.6910     0.0250    -3.5090 h4         1 PE0       0.031100
     17 H5          -0.7890     0.0290    -3.7920 h4         1 PE0       0.036100
@<TRIPOS>BOND
     1     1     2 1   
     2     1     8 ar  
     3     1    12 ar  
     4     2     3 2   
     5     2     4 1   
     6     4     5 1   
     7     4    13 1   
     8     5     6 1   
     9     5     7 2   
    10     6    14 1   
    11     6    15 1   
    12     7     8 1   
    13     8     9 ar  
    14     9    10 ar  
    15    10    11 ar  
    16    10    16 1   
    17    11    12 ar  
    18    11    17 1   
@<TRIPOS>SUBSTRUCTURE
     1 PE0         1 TEMP              0 ****  ****    0 ROOT
