@<TRIPOS>MOLECULE
PE0
   17    18     1     0     0
SMALL
No Charge or Current Charge


@<TRIPOS>ATOM
      1 C1          -0.5840    -0.0060    -0.5490 ca         1 PE0       0.143500
      2 C4          -1.4470    -0.0290     0.6820 c          1 PE0       0.492500
      3 O4          -2.6710    -0.0140     0.6800 o          1 PE0      -0.490000
      4 N2          -0.7460    -0.0710     1.8410 ns         1 PE0      -0.460400
      5 C3           0.5940    -0.0980     1.9020 cc         1 PE0       0.752800
      6 N6           1.1210    -0.1370     3.1030 nv         1 PE0      -1.053200
      7 N1           1.4470    -0.0880     0.9160 nd         1 PE0      -0.776700
      8 C2           0.8350    -0.0390    -0.3620 ca         1 PE0       0.329000
      9 N3           1.6360    -0.0220    -1.4550 nb         1 PE0      -0.116000
     10 C6           1.0630     0.0260    -2.6760 ca         1 PE0       0.080900
     11 C5          -0.3320     0.0580    -2.8440 ca         1 PE0       0.238900
     12 N4          -1.1690     0.0420    -1.7840 nb         1 PE0      -0.557000
     13 HN2         -1.2780    -0.1140     2.6960 hn         1 PE0       0.326500
     14 HN61         2.1200     0.0210     3.0850 hn         1 PE0       0.512500
     15 HN62         0.6290     0.3670     3.8300 hn         1 PE0       0.512500
     16 H6           1.7340     0.0380    -3.5330 h4         1 PE0       0.031100
     17 H5          -0.7820     0.0960    -3.8350 h4         1 PE0       0.036100
@<TRIPOS>BOND
     1     1     2 1   
     2     1     8 ar  
     3     1    12 ar  
     4     2     3 2   
     5     2     4 1   
     6     4     5 1   
     7     4    13 1   
     8     5     6 1   
     9     5     7 2   
    10     6    14 1   
    11     6    15 1   
    12     7     8 1   
    13     8     9 ar  
    14     9    10 ar  
    15    10    11 ar  
    16    10    16 1   
    17    11    12 ar  
    18    11    17 1   
@<TRIPOS>SUBSTRUCTURE
     1 PE0         1 TEMP              0 ****  ****    0 ROOT
