@<TRIPOS>MOLECULE
PE1
   46    46     1     0     0
SMALL
No Charge or Current Charge


@<TRIPOS>ATOM
      1 N1           4.8960    62.5750    -9.7190 nb         1 PE1      -0.694000
      2 C2           4.8670    61.2370    -9.9220 ca         1 PE1       0.251300
      3 C2A          6.1650    60.4950    -9.6140 c3         1 PE1      -0.103400
      4 C3           3.7130    60.5490   -10.3900 ca         1 PE1       0.070100
      5 O3           3.7440    59.1870   -10.5760 oh         1 PE1      -0.573100
      6 C4           2.5320    61.2840   -10.6590 ca         1 PE1      -0.149300
      7 C4A          1.2610    60.5990   -11.1600 c3         1 PE1       0.223100
      8 C5           2.5690    62.6880   -10.4410 ca         1 PE1      -0.011300
      9 C6           3.7640    63.2740    -9.9790 ca         1 PE1       0.310900
     10 C5A          1.3740    63.6070   -10.6810 c3         1 PE1       0.266900
     11 O4P          1.4900    64.1880   -11.9850 os         1 PE1      -0.591400
     12 P            0.4920    65.3830   -12.3800 p5         1 PE1       1.272900
     13 O1P          0.7050    66.5330   -11.4620 o          1 PE1      -0.923500
     14 O2P         -0.9160    64.9110   -12.2940 o          1 PE1      -0.923500
     15 O3P          0.7860    65.8060   -13.7760 o          1 PE1      -0.923500
     16 N            0.3820    60.2820   -10.0230 n7         1 PE1      -0.840400
     17 CA          -0.9690    59.6790   -10.3250 c3         1 PE1       0.041500
     18 C           -1.9230    59.5330    -9.0680 c          1 PE1       0.733000
     19 OXT         -1.4390    59.2370    -7.9800 o          1 PE1      -0.743500
     20 CB          -0.8400    58.3240   -11.0870 c3         1 PE1      -0.092400
     21 CG          -0.0490    57.2130   -10.3450 c3         1 PE1      -0.073400
     22 CD          -0.0040    55.8590   -11.0930 c3         1 PE1      -0.072400
     23 CE           0.7670    55.8980   -12.4320 c3         1 PE1       0.138800
     24 O           -3.1060    59.8220    -9.2060 o          1 PE1      -0.743500
     25 NZ           0.8390    54.5610   -13.0560 n8         1 PE1      -1.005200
     26 H6           3.8170    64.3500    -9.8080 h4         1 PE1       0.058100
     27 H2A1         6.9570    61.1690    -9.2630 hc         1 PE1       0.017033
     28 H2A2         6.0080    59.7400    -8.8360 hc         1 PE1       0.017033
     29 H2A3         6.5420    59.9830   -10.5070 hc         1 PE1       0.017033
     30 H3           2.8750    58.9000   -10.9240 ho         1 PE1       0.456000
     31 H4A1         0.7420    61.2540   -11.8720 h1         1 PE1       0.008700
     32 H4A2         1.5250    59.6880   -11.7110 h1         1 PE1       0.008700
     33 H            0.8760    59.6680    -9.3660 hn         1 PE1       0.423000
     34 H5A1         0.4320    63.0540   -10.5810 h1         1 PE1       0.035700
     35 H5A2         1.3690    64.3870    -9.9070 h1         1 PE1       0.035700
     36 HA          -1.5060    60.3610   -10.9980 h1         1 PE1       0.080700
     37 HB1C        -1.8510    57.9530   -11.2940 hc         1 PE1       0.022200
     38 HB2C        -0.3860    58.5070   -12.0670 hc         1 PE1       0.022200
     39 HG1C         0.9780    57.5480   -10.1570 hc         1 PE1       0.044200
     40 HG2C        -0.5060    57.0420    -9.3640 hc         1 PE1       0.044200
     41 HD1C         0.4670    55.1190   -10.4330 hc         1 PE1       0.024200
     42 HD2C        -1.0300    55.5130   -11.2710 hc         1 PE1       0.024200
     43 HE1C         0.2710    56.5830   -13.1330 h1         1 PE1       0.035700
     44 HE2C         1.7900    56.2600   -12.2580 h1         1 PE1       0.035700
     45 HZ1N         1.4230    54.6160   -13.8990 hn         1 PE1       0.372000
     46 HZ2N         1.3620    53.9320   -12.4350 hn         1 PE1       0.372000
@<TRIPOS>BOND
     1     1     2 ar  
     2     1     9 ar  
     3     2     3 1   
     4     2     4 ar  
     5     3    27 1   
     6     3    28 1   
     7     3    29 1   
     8     4     5 1   
     9     4     6 ar  
    10     5    30 1   
    11     6     7 1   
    12     6     8 ar  
    13     7    16 1   
    14     7    31 1   
    15     7    32 1   
    16     8     9 ar  
    17     8    10 1   
    18     9    26 1   
    19    10    11 1   
    20    10    34 1   
    21    10    35 1   
    22    11    12 1   
    23    12    13 1   
    24    12    14 1   
    25    12    15 1   
    26    16    17 1   
    27    16    33 1   
    28    17    18 1   
    29    17    20 1   
    30    17    36 1   
    31    18    19 1   
    32    18    24 1   
    33    20    21 1   
    34    20    37 1   
    35    20    38 1   
    36    21    22 1   
    37    21    39 1   
    38    21    40 1   
    39    22    23 1   
    40    22    41 1   
    41    22    42 1   
    42    23    25 1   
    43    23    43 1   
    44    23    44 1   
    45    25    45 1   
    46    25    46 1   
@<TRIPOS>SUBSTRUCTURE
     1 PE1         1 TEMP              0 ****  ****    0 ROOT
