@<TRIPOS>MOLECULE
PE1
   46    46     1     0     0
SMALL
bcc


@<TRIPOS>ATOM
      1 N1           4.8980    62.6600   -10.1650 nb         1 PE1      -0.694000
      2 C2           4.9440    61.3490   -10.0040 ca         1 PE1       0.316600
      3 C2A          6.1910    60.7460    -9.4300 c3         1 PE1      -0.103400
      4 C3           3.8520    60.5380   -10.3490 ca         1 PE1       0.004800
      5 O3           4.0030    59.2140   -10.1290 oh         1 PE1      -0.534100
      6 C4           2.6980    61.1130   -10.8720 ca         1 PE1      -0.149300
      7 C4A          1.4710    60.2890   -11.1710 c3         1 PE1       0.223100
      8 C5           2.6720    62.5050   -11.0320 ca         1 PE1      -0.076600
      9 C6           3.7990    63.2210   -10.6660 ca         1 PE1       0.376200
     10 C5A          1.4520    63.1820   -11.6020 c3         1 PE1       0.243700
     11 O4P          1.5960    64.5600   -11.6290 os         1 PE1      -0.568200
     12 P            0.1520    65.4890   -11.8070 p5         1 PE1       1.272900
     13 O1P         -0.6710    65.1500   -10.5680 o          1 PE1      -0.923500
     14 O2P         -0.4510    64.9980   -13.1190 o          1 PE1      -0.923500
     15 O3P          0.7300    66.8960   -11.8390 o          1 PE1      -0.923500
     16 N            0.5930    60.3050   -10.0210 n7         1 PE1      -0.785200
     17 CA          -0.7510    59.7980   -10.2290 c3         1 PE1       0.041500
     18 C           -1.5070    59.7030    -8.8800 c          1 PE1       0.943600
     19 OXT         -0.8270    59.7280    -7.8340 o          1 PE1      -0.848800
     20 CB          -0.8380    58.4500   -10.9650 c3         1 PE1      -0.092400
     21 CG          -0.1310    57.2960   -10.2630 c3         1 PE1      -0.073400
     22 CD          -0.2170    55.9750   -11.0230 c3         1 PE1      -0.072400
     23 CE           0.5100    55.9870   -12.3610 c3         1 PE1       0.138800
     24 O           -2.7440    59.5770    -8.9650 o          1 PE1      -0.848800
     25 NZ           0.4720    54.6700   -12.9820 n8         1 PE1      -0.894800
     26 H6           3.8170    64.2980   -10.7710 h4         1 PE1       0.058100
     27 H2A1         6.9180    61.5290    -9.2270 hc         1 PE1       0.017033
     28 H2A2         5.9930    60.2160    -8.4960 hc         1 PE1       0.017033
     29 H2A3         6.6460    60.0250   -10.1120 hc         1 PE1       0.017033
     30 H3           3.2290    58.7180   -10.4180 ho         1 PE1       0.417000
     31 H4A1         0.9370    60.7240   -12.0190 h1         1 PE1       0.008700
     32 H4A2         1.7470    59.2810   -11.5210 h1         1 PE1       0.008700
     33 H            1.0120    59.8410    -9.2260 hn         1 PE1       0.367800
     34 H5A1         1.2750    62.7720   -12.6100 h1         1 PE1       0.035700
     35 H5A2         0.5850    62.8700   -11.0020 h1         1 PE1       0.035700
     36 HA          -1.2810    60.5300   -10.8530 h1         1 PE1       0.080700
     37 HB1C        -1.8950    58.2020   -11.0980 hc         1 PE1       0.022200
     38 HB2C        -0.4370    58.5710   -11.9760 hc         1 PE1       0.022200
     39 HG1C         0.9230    57.5430   -10.0980 hc         1 PE1       0.044200
     40 HG2C        -0.5620    57.1530    -9.2680 hc         1 PE1       0.044200
     41 HD1C         0.2110    55.1820   -10.4010 hc         1 PE1       0.024200
     42 HD2C        -1.2660    55.7070   -11.1840 hc         1 PE1       0.024200
     43 HE1C         0.0250    56.6910   -13.0410 h1         1 PE1       0.035700
     44 HE2C         1.5310    56.3690   -12.2030 h1         1 PE1       0.035700
     45 HZ1N         0.9310    54.7070   -13.8830 hn         1 PE1       0.316800
     46 HZ2N         1.0180    54.0230   -12.4250 hn         1 PE1       0.316800
@<TRIPOS>BOND
     1     1     2 ar  
     2     1     9 ar  
     3     2     3 1   
     4     2     4 ar  
     5     3    27 1   
     6     3    28 1   
     7     3    29 1   
     8     4     5 1   
     9     4     6 ar  
    10     5    30 1   
    11     6     7 1   
    12     6     8 ar  
    13     7    16 1   
    14     7    31 1   
    15     7    32 1   
    16     8     9 ar  
    17     8    10 1   
    18     9    26 1   
    19    10    11 1   
    20    10    34 1   
    21    10    35 1   
    22    11    12 1   
    23    12    13 1   
    24    12    14 1   
    25    12    15 1   
    26    16    17 1   
    27    16    33 1   
    28    17    18 1   
    29    17    20 1   
    30    17    36 1   
    31    18    19 1   
    32    18    24 1   
    33    20    21 1   
    34    20    37 1   
    35    20    38 1   
    36    21    22 1   
    37    21    39 1   
    38    21    40 1   
    39    22    23 1   
    40    22    41 1   
    41    22    42 1   
    42    23    25 1   
    43    23    43 1   
    44    23    44 1   
    45    25    45 1   
    46    25    46 1   
@<TRIPOS>SUBSTRUCTURE
     1 PE1         1 TEMP              0 ****  ****    0 ROOT
