@<TRIPOS>MOLECULE
PE2
   33    34     1     0     0
SMALL
No Charge or Current Charge


@<TRIPOS>ATOM
      1 C2           1.7000    -0.0620    -2.5730 cc         1 PE2       0.732800
      2 C4          -0.1940     0.2100    -1.3820 cd         1 PE2       0.139400
      3 C5          -0.9650    -0.1570    -2.4520 cc         1 PE2       0.086500
      4 C9          -0.4320    -1.0760     4.4270 c3         1 PE2       0.165600
      5 O4          -0.5090    -0.6640     5.7990 oh         1 PE2      -0.665500
      6 C3           0.9090     1.0050     3.6970 c3         1 PE2       0.165600
      7 O3           2.0800     0.2840     3.2850 oh         1 PE2      -0.665500
      8 C7          -0.3790     0.1570     3.4850 c3         1 PE2      -0.057700
      9 C12         -0.6060    -0.2640     2.0030 c3         1 PE2      -0.094400
     10 N9          -1.0620     0.4850    -0.3500 na         1 PE2      -0.174500
     11 N3           1.2010     0.2730    -1.4050 nd         1 PE2      -0.701100
     12 N2           3.0130    -0.0240    -2.6840 nv         1 PE2      -1.048200
     13 N1           1.0230    -0.4370    -3.6800 ns         1 PE2      -0.459400
     14 C6          -0.3320    -0.5250    -3.7420 c          1 PE2       0.521500
     15 O6          -0.9150    -0.8730    -4.7600 o          1 PE2      -0.518000
     16 N7          -2.3020    -0.1220    -2.1270 nc         1 PE2      -0.593000
     17 C8          -2.3440     0.2690    -0.8520 cd         1 PE2       0.392400
     18 H4'1        -1.3150    -1.6790     4.1750 h1         1 PE2       0.026700
     19 H4'2         0.4530    -1.7050     4.2620 h1         1 PE2       0.026700
     20 HO4         -0.5300    -1.4830     6.3420 ho         1 PE2       0.444000
     21 H3'1         0.8240     1.9400     3.1280 h1         1 PE2       0.026700
     22 H3'2         0.9900     1.2850     4.7550 h1         1 PE2       0.026700
     23 HO3          2.8520     0.8640     3.4690 ho         1 PE2       0.444000
     24 H2          -1.2250     0.7980     3.7620 hc         1 PE2       0.058700
     25 H121        -1.5310    -0.8510     1.9430 hc         1 PE2       0.063200
     26 H122         0.2050    -0.9290     1.6780 hc         1 PE2       0.063200
     27 H1'1         0.2360     1.4600     0.9740 h1         1 PE2       0.062700
     28 H1'2        -1.4880     1.6160     1.3610 h1         1 PE2       0.062700
     29 HN21         3.4590     0.4340    -1.8980 hn         1 PE2       0.501500
     30 HN22         3.3890     0.2230    -3.5900 hn         1 PE2       0.501500
     31 HN1          1.5350    -0.6940    -4.5080 hn         1 PE2       0.321500
     32 H8          -3.2310     0.4110    -0.2460 h5         1 PE2       0.058100
     33 C1          -0.7160     0.9170     1.0120 c3         1 PE2       0.087600
@<TRIPOS>BOND
     1     1    11 2   
     2     1    12 1   
     3     1    13 1   
     4     2     3 2   
     5     2    10 1   
     6     2    11 1   
     7     3    14 1   
     8     3    16 1   
     9     4     5 1   
    10     4     8 1   
    11     4    18 1   
    12     4    19 1   
    13     5    20 1   
    14     6     7 1   
    15     6     8 1   
    16     6    21 1   
    17     6    22 1   
    18     7    23 1   
    19     8     9 1   
    20     8    24 1   
    21     9    25 1   
    22     9    26 1   
    23     9    33 1   
    24    10    17 1   
    25    10    33 1   
    26    12    29 1   
    27    12    30 1   
    28    13    14 1   
    29    13    31 1   
    30    14    15 2   
    31    16    17 2   
    32    17    32 1   
    33    27    33 1   
    34    28    33 1   
@<TRIPOS>SUBSTRUCTURE
     1 PE2         1 TEMP              0 ****  ****    0 ROOT
