@<TRIPOS>MOLECULE
PE2
   33    34     1     0     0
SMALL
abcg2


@<TRIPOS>ATOM
      1 C2           1.6540    -0.2740    -2.3000 cc         1 PE2       0.732800
      2 C4          -0.2500     0.2660    -1.3120 cd         1 PE2       0.139400
      3 C5          -1.0460     0.0120    -2.4160 cc         1 PE2       0.086500
      4 C9          -0.1270    -1.2250     4.1160 c3         1 PE2       0.165600
      5 O4          -0.2290    -1.0000     5.5060 oh         1 PE2      -0.665500
      6 C3           0.6150     1.1620     3.7070 c3         1 PE2       0.165600
      7 O3           1.8870     0.7790     3.2330 oh         1 PE2      -0.665500
      8 C7          -0.3960     0.0750     3.3680 c3         1 PE2      -0.057700
      9 C12         -0.4810    -0.2210     1.8690 c3         1 PE2      -0.094400
     10 N9          -1.1020     0.6790    -0.3400 na         1 PE2      -0.174500
     11 N3           1.0810     0.1450    -1.1990 nd         1 PE2      -0.701100
     12 N2           2.9780    -0.4870    -2.3270 nv         1 PE2      -1.048200
     13 N1           0.9600    -0.5470    -3.4450 ns         1 PE2      -0.459400
     14 C6          -0.4250    -0.4320    -3.6180 c          1 PE2       0.521500
     15 O6          -0.9410    -0.7000    -4.6920 o          1 PE2      -0.518000
     16 N7          -2.3630     0.2600    -2.1290 nc         1 PE2      -0.593000
     17 C8          -2.3550     0.6490    -0.8900 cd         1 PE2       0.392400
     18 H4'1        -0.8560    -1.9780     3.7850 h1         1 PE2       0.026700
     19 H4'2         0.8650    -1.6060     3.8450 h1         1 PE2       0.026700
     20 HO4          0.1220    -1.7710     5.9600 ho         1 PE2       0.444000
     21 H3'1         0.2910     2.1100     3.2580 h1         1 PE2       0.026700
     22 H3'2         0.6210     1.3200     4.7920 h1         1 PE2       0.026700
     23 HO3          2.5160     1.4640     3.4750 ho         1 PE2       0.444000
     24 H2          -1.3750     0.4520     3.6890 hc         1 PE2       0.058700
     25 H121        -1.2850    -0.9430     1.7020 hc         1 PE2       0.063200
     26 H122         0.4420    -0.6910     1.5200 hc         1 PE2       0.063200
     27 H1'1         0.1050     1.6810     1.0030 h1         1 PE2       0.062700
     28 H1'2        -1.5950     1.5850     1.4390 h1         1 PE2       0.062700
     29 HN21         3.5230    -0.1460    -1.5540 hn         1 PE2       0.501500
     30 HN22         3.4650    -0.6230    -3.1960 hn         1 PE2       0.501500
     31 HN1          1.4770    -0.8630    -4.2550 hn         1 PE2       0.321500
     32 H8          -3.2230     0.9350    -0.3140 h5         1 PE2       0.058100
     33 C1          -0.7590     1.0180     1.0270 c3         1 PE2       0.087600
@<TRIPOS>BOND
     1     1    11 2   
     2     1    12 1   
     3     1    13 1   
     4     2     3 2   
     5     2    10 1   
     6     2    11 1   
     7     3    14 1   
     8     3    16 1   
     9     4     5 1   
    10     4     8 1   
    11     4    18 1   
    12     4    19 1   
    13     5    20 1   
    14     6     7 1   
    15     6     8 1   
    16     6    21 1   
    17     6    22 1   
    18     7    23 1   
    19     8     9 1   
    20     8    24 1   
    21     9    25 1   
    22     9    26 1   
    23     9    33 1   
    24    10    17 1   
    25    10    33 1   
    26    12    29 1   
    27    12    30 1   
    28    13    14 1   
    29    13    31 1   
    30    14    15 2   
    31    16    17 2   
    32    17    32 1   
    33    27    33 1   
    34    28    33 1   
@<TRIPOS>SUBSTRUCTURE
     1 PE2         1 TEMP              0 ****  ****    0 ROOT
