@<TRIPOS>MOLECULE
PE3
  101   100     1     0     0
SMALL
abcg2


@<TRIPOS>ATOM
      1 O43         17.8330     1.0800     1.6440 oh         1 PE3      -0.709500
      2 C42         17.0730     2.0090     0.9050 c3         1 PE3       0.163600
      3 C41         16.4480     1.3200    -0.2810 c3         1 PE3       0.160600
      4 O40         15.5220     0.3570     0.1540 os         1 PE3      -0.434000
      5 C39         14.8820    -0.2940    -0.9130 c3         1 PE3       0.162100
      6 C38         13.9370    -1.3410    -0.3830 c3         1 PE3       0.162600
      7 O37         12.9030    -0.7270     0.3430 os         1 PE3      -0.436500
      8 C36         11.9750    -1.6500     0.8520 c3         1 PE3       0.161600
      9 C35         10.9390    -0.9300     1.6760 c3         1 PE3       0.162100
     10 O34         10.1630    -0.0980     0.8510 os         1 PE3      -0.437000
     11 C33          9.1920     0.6180     1.5690 c3         1 PE3       0.162100
     12 C32          8.3910     1.4830     0.6320 c3         1 PE3       0.162100
     13 O31          7.6460     0.6770    -0.2460 os         1 PE3      -0.435500
     14 C30          6.8140     1.4270    -1.0910 c3         1 PE3       0.162600
     15 C29          6.0530     0.5080    -2.0120 c3         1 PE3       0.162600
     16 O28          5.2000    -0.3190    -1.2640 os         1 PE3      -0.435000
     17 C27          4.4090    -1.1520    -2.0720 c3         1 PE3       0.162600
     18 C26          3.5700    -2.0580    -1.2090 c3         1 PE3       0.162100
     19 O25          2.6680    -1.2950    -0.4500 os         1 PE3      -0.435000
     20 C24          1.8170    -2.0880     0.3380 c3         1 PE3       0.162100
     21 C23          0.9330    -1.2060     1.1820 c3         1 PE3       0.162100
     22 O22          0.0860    -0.4490     0.3560 os         1 PE3      -0.434000
     23 C21         -0.7770     0.3850     1.0840 c3         1 PE3       0.162100
     24 C20         -1.6110     1.2080     0.1370 c3         1 PE3       0.162100
     25 O19         -2.4680     0.3690    -0.5960 os         1 PE3      -0.435000
     26 C18         -3.2710     1.0760    -1.5070 c3         1 PE3       0.162100
     27 C17         -4.2150     0.1260    -2.1980 c3         1 PE3       0.162600
     28 O16         -5.1250    -0.3940    -1.2630 os         1 PE3      -0.435000
     29 C15         -6.0750    -1.2530    -1.8380 c3         1 PE3       0.162600
     30 C14         -6.9890    -1.7850    -0.7640 c3         1 PE3       0.162600
     31 O13         -7.7220    -0.7270    -0.2030 os         1 PE3      -0.435500
     32 C12         -8.5260    -1.1270     0.8760 c3         1 PE3       0.162100
     33 C11         -9.2390     0.0700     1.4480 c3         1 PE3       0.162100
     34 O10        -10.1820     0.5480     0.5220 os         1 PE3      -0.437000
     35 C9         -10.8600     1.6910     0.9770 c3         1 PE3       0.162100
     36 C8         -11.9110     2.0940    -0.0250 c3         1 PE3       0.161600
     37 O7         -12.9120     1.1100    -0.0860 os         1 PE3      -0.436500
     38 C6         -13.9400     1.4360    -0.9850 c3         1 PE3       0.162600
     39 C5         -14.9650     0.3320    -1.0070 c3         1 PE3       0.162100
     40 O4         -15.5940     0.2410     0.2460 os         1 PE3      -0.434000
     41 C3         -16.5690    -0.7700     0.2920 c3         1 PE3       0.160600
     42 C2         -17.1990    -0.8150     1.6610 c3         1 PE3       0.163600
     43 O1         -17.9200     0.3750     1.8870 oh         1 PE3      -0.709500
     44 H43         18.2320     1.5440     2.3850 ho         1 PE3       0.499000
     45 H421        16.2830     2.4670     1.5150 h1         1 PE3       0.025200
     46 H422        17.6900     2.8290     0.5180 h1         1 PE3       0.025200
     47 H411        15.9600     2.0840    -0.9020 h1         1 PE3       0.025950
     48 H412        17.2300     0.8590    -0.9040 h1         1 PE3       0.025950
     49 H391        14.3360     0.4240    -1.5420 h1         1 PE3       0.027450
     50 H392        15.6100    -0.7950    -1.5660 h1         1 PE3       0.027450
     51 H381        13.5400    -1.9050    -1.2390 h1         1 PE3       0.028200
     52 H382        14.4860    -2.0580     0.2430 h1         1 PE3       0.028200
     53 H361        11.4890    -2.2120     0.0410 h1         1 PE3       0.028200
     54 H362        12.4660    -2.3900     1.5000 h1         1 PE3       0.028200
     55 H351        10.3140    -1.6830     2.1760 h1         1 PE3       0.028700
     56 H352        11.4320    -0.3490     2.4690 h1         1 PE3       0.028700
     57 H331         8.5210    -0.0620     2.1140 h1         1 PE3       0.028200
     58 H332         9.6590     1.2710     2.3210 h1         1 PE3       0.028200
     59 H321         7.7310     2.1180     1.2400 h1         1 PE3       0.028200
     60 H322         9.0590     2.1580     0.0770 h1         1 PE3       0.028200
     61 H301         6.1100     2.0390    -0.5080 h1         1 PE3       0.027450
     62 H302         7.3980     2.1210    -1.7120 h1         1 PE3       0.027450
     63 H291         5.4860     1.1310    -2.7180 h1         1 PE3       0.027450
     64 H292         6.7550    -0.0910    -2.6110 h1         1 PE3       0.027450
     65 H271         3.7610    -0.5590    -2.7340 h1         1 PE3       0.027700
     66 H272         5.0320    -1.7840    -2.7200 h1         1 PE3       0.027700
     67 H261         3.0400    -2.7590    -1.8690 h1         1 PE3       0.027700
     68 H262         4.2180    -2.6630    -0.5580 h1         1 PE3       0.027700
     69 H241         1.2000    -2.7470    -0.2900 h1         1 PE3       0.027700
     70 H242         2.3910    -2.7380     1.0120 h1         1 PE3       0.027700
     71 H231         0.3550    -1.8520     1.8580 h1         1 PE3       0.027200
     72 H232         1.5510    -0.5540     1.8160 h1         1 PE3       0.027200
     73 H211        -1.4300    -0.2020     1.7460 h1         1 PE3       0.027200
     74 H212        -0.2120     1.0760     1.7260 h1         1 PE3       0.027200
     75 H201        -2.1830     1.9360     0.7290 h1         1 PE3       0.027700
     76 H202        -0.9560     1.7860    -0.5310 h1         1 PE3       0.027700
     77 H181        -3.8460     1.8630    -0.9990 h1         1 PE3       0.027700
     78 H182        -2.6590     1.5740    -2.2720 h1         1 PE3       0.027700
     79 H171        -4.7340     0.6810    -2.9920 h1         1 PE3       0.027700
     80 H172        -3.6500    -0.6800    -2.6900 h1         1 PE3       0.027700
     81 H151        -6.6630    -0.7330    -2.6080 h1         1 PE3       0.027450
     82 H152        -5.5930    -2.1080    -2.3320 h1         1 PE3       0.027450
     83 H141        -7.6520    -2.5340    -1.2170 h1         1 PE3       0.027450
     84 H142        -6.3990    -2.3060     0.0040 h1         1 PE3       0.027450
     85 H121        -9.2590    -1.8870     0.5690 h1         1 PE3       0.028200
     86 H122        -7.9180    -1.5790     1.6730 h1         1 PE3       0.028200
     87 H111        -9.7270    -0.2320     2.3850 h1         1 PE3       0.028200
     88 H112        -8.5070     0.8500     1.7060 h1         1 PE3       0.028200
     89 H91        -11.3280     1.5100     1.9550 h1         1 PE3       0.028700
     90 H92        -10.1690     2.5350     1.1070 h1         1 PE3       0.028700
     91 H81        -12.3250     3.0620     0.2880 h1         1 PE3       0.028200
     92 H82        -11.4510     2.2500    -1.0120 h1         1 PE3       0.028200
     93 H61        -14.4170     2.3880    -0.7100 h1         1 PE3       0.028200
     94 H62        -13.5500     1.5600    -2.0050 h1         1 PE3       0.028200
     95 H51        -15.6930     0.5530    -1.8000 h1         1 PE3       0.027450
     96 H52        -14.4840    -0.6200    -1.2760 h1         1 PE3       0.027450
     97 H31        -17.3420    -0.6050    -0.4720 h1         1 PE3       0.025950
     98 H32        -16.1260    -1.7550     0.0880 h1         1 PE3       0.025950
     99 H21        -17.8480    -1.6990     1.6920 h1         1 PE3       0.025200
    100 H22        -16.4170    -0.9680     2.4160 h1         1 PE3       0.025200
    101 HO1        -18.3120     0.3240     2.7630 ho         1 PE3       0.499000
@<TRIPOS>BOND
     1     1     2 1   
     2     1    44 1   
     3     2     3 1   
     4     2    45 1   
     5     2    46 1   
     6     3     4 1   
     7     3    47 1   
     8     3    48 1   
     9     4     5 1   
    10     5     6 1   
    11     5    49 1   
    12     5    50 1   
    13     6     7 1   
    14     6    51 1   
    15     6    52 1   
    16     7     8 1   
    17     8     9 1   
    18     8    53 1   
    19     8    54 1   
    20     9    10 1   
    21     9    55 1   
    22     9    56 1   
    23    10    11 1   
    24    11    12 1   
    25    11    57 1   
    26    11    58 1   
    27    12    13 1   
    28    12    59 1   
    29    12    60 1   
    30    13    14 1   
    31    14    15 1   
    32    14    61 1   
    33    14    62 1   
    34    15    16 1   
    35    15    63 1   
    36    15    64 1   
    37    16    17 1   
    38    17    18 1   
    39    17    65 1   
    40    17    66 1   
    41    18    19 1   
    42    18    67 1   
    43    18    68 1   
    44    19    20 1   
    45    20    21 1   
    46    20    69 1   
    47    20    70 1   
    48    21    22 1   
    49    21    71 1   
    50    21    72 1   
    51    22    23 1   
    52    23    24 1   
    53    23    73 1   
    54    23    74 1   
    55    24    25 1   
    56    24    75 1   
    57    24    76 1   
    58    25    26 1   
    59    26    27 1   
    60    26    77 1   
    61    26    78 1   
    62    27    28 1   
    63    27    79 1   
    64    27    80 1   
    65    28    29 1   
    66    29    30 1   
    67    29    81 1   
    68    29    82 1   
    69    30    31 1   
    70    30    83 1   
    71    30    84 1   
    72    31    32 1   
    73    32    33 1   
    74    32    85 1   
    75    32    86 1   
    76    33    34 1   
    77    33    87 1   
    78    33    88 1   
    79    34    35 1   
    80    35    36 1   
    81    35    89 1   
    82    35    90 1   
    83    36    37 1   
    84    36    91 1   
    85    36    92 1   
    86    37    38 1   
    87    38    39 1   
    88    38    93 1   
    89    38    94 1   
    90    39    40 1   
    91    39    95 1   
    92    39    96 1   
    93    40    41 1   
    94    41    42 1   
    95    41    97 1   
    96    41    98 1   
    97    42    43 1   
    98    42    99 1   
    99    42   100 1   
   100    43   101 1   
@<TRIPOS>SUBSTRUCTURE
     1 PE3         1 TEMP              0 ****  ****    0 ROOT
