@<TRIPOS>MOLECULE
PE3
  101   100     1     0     0
SMALL
No Charge or Current Charge


@<TRIPOS>ATOM
      1 O43         19.4320    -0.1860     0.7530 oh         1 PE3      -0.709500
      2 C42         18.5530     0.8880     1.1430 c3         1 PE3       0.163600
      3 C41         17.6240     1.3220    -0.0230 c3         1 PE3       0.160600
      4 O40         16.6870     0.2630    -0.3050 os         1 PE3      -0.434000
      5 C39         15.7710     0.5470    -1.3810 c3         1 PE3       0.162100
      6 C38         14.8170    -0.6570    -1.5680 c3         1 PE3       0.162600
      7 O37         13.8900    -0.6990    -0.4650 os         1 PE3      -0.436500
      8 C36         12.9470    -1.7890    -0.5190 c3         1 PE3       0.161600
      9 C35         12.0090    -1.7070     0.7090 c3         1 PE3       0.162100
     10 O34         11.1080    -0.5950     0.5400 os         1 PE3      -0.437000
     11 C33         10.1830    -0.4050     1.6290 c3         1 PE3       0.162100
     12 C32          9.2730     0.8070     1.3150 c3         1 PE3       0.162100
     13 O31          8.3500     0.4430     0.2700 os         1 PE3      -0.435500
     14 C30          7.4490     1.4970    -0.1240 c3         1 PE3       0.162600
     15 C29          6.5110     0.9710    -1.2370 c3         1 PE3       0.162600
     16 O28          5.5690     0.0450    -0.6600 os         1 PE3      -0.435000
     17 C27          4.6410    -0.5270    -1.6030 c3         1 PE3       0.162600
     18 C26          3.6850    -1.4870    -0.8540 c3         1 PE3       0.162100
     19 O25          2.7740    -0.7110    -0.0510 os         1 PE3      -0.435000
     20 C24          1.8330    -1.4960     0.7100 c3         1 PE3       0.162100
     21 C23          0.9130    -0.5440     1.5110 c3         1 PE3       0.162100
     22 O22          0.0070     0.1120     0.6020 os         1 PE3      -0.434000
     23 C21         -0.9010     1.0390     1.2290 c3         1 PE3       0.162100
     24 C20         -1.8180     1.6590     0.1480 c3         1 PE3       0.162100
     25 O19         -2.7560     0.6610    -0.3030 os         1 PE3      -0.435000
     26 C18         -3.6640     1.1150    -1.3250 c3         1 PE3       0.162100
     27 C17         -4.6170    -0.0430    -1.7060 c3         1 PE3       0.162600
     28 O16         -5.5490    -0.2600    -0.6280 os         1 PE3      -0.435000
     29 C15         -6.4890    -1.3280    -0.8570 c3         1 PE3       0.162600
     30 C14         -7.4310    -1.4440     0.3650 c3         1 PE3       0.162600
     31 O13         -8.3330    -0.3200     0.3730 os         1 PE3      -0.435500
     32 C12         -9.2610    -0.3060     1.4760 c3         1 PE3       0.162100
     33 C11        -10.1710     0.9390     1.3560 c3         1 PE3       0.162100
     34 O10        -11.0920     0.7460     0.2640 os         1 PE3      -0.437000
     35 C9         -11.9930     1.8490     0.0400 c3         1 PE3       0.162100
     36 C8         -12.9280     1.5060    -1.1450 c3         1 PE3       0.161600
     37 O7         -13.8710     0.4990    -0.7250 os         1 PE3      -0.436500
     38 C6         -14.7950     0.0830    -1.7500 c3         1 PE3       0.162600
     39 C5         -15.7510    -0.9850    -1.1660 c3         1 PE3       0.162100
     40 O4         -16.6690    -0.3500    -0.2540 os         1 PE3      -0.434000
     41 C3         -17.6080    -1.2500     0.3690 c3         1 PE3       0.160600
     42 C2         -18.5400    -0.4440     1.3140 c3         1 PE3       0.163600
     43 O1         -19.4180     0.4320     0.5780 oh         1 PE3      -0.709500
     44 H43         19.9420    -0.4440     1.5560 ho         1 PE3       0.499000
     45 H421        17.9340     0.5870     1.9990 h1         1 PE3       0.025200
     46 H422        19.1450     1.7590     1.4560 h1         1 PE3       0.025200
     47 H411        17.0890     2.2340     0.2710 h1         1 PE3       0.025950
     48 H412        18.2310     1.5550    -0.9090 h1         1 PE3       0.025950
     49 H391        15.1840     1.4510    -1.1720 h1         1 PE3       0.027450
     50 H392        16.3240     0.7090    -2.3160 h1         1 PE3       0.027450
     51 H381        14.2750    -0.5360    -2.5150 h1         1 PE3       0.028200
     52 H382        15.4030    -1.5840    -1.6260 h1         1 PE3       0.028200
     53 H361        12.3510    -1.7500    -1.4400 h1         1 PE3       0.028200
     54 H362        13.4780    -2.7500    -0.4960 h1         1 PE3       0.028200
     55 H351        11.4440    -2.6450     0.7850 h1         1 PE3       0.028700
     56 H352        12.6080    -1.5940     1.6220 h1         1 PE3       0.028700
     57 H331         9.5650    -1.2990     1.7830 h1         1 PE3       0.028200
     58 H332        10.7300    -0.2040     2.5600 h1         1 PE3       0.028200
     59 H321         8.7260     1.0840     2.2250 h1         1 PE3       0.028200
     60 H322         9.8920     1.6630     1.0150 h1         1 PE3       0.028200
     61 H301         6.8490     1.8430     0.7280 h1         1 PE3       0.027450
     62 H302         8.0140     2.3540    -0.5130 h1         1 PE3       0.027450
     63 H291         5.9800     1.8220    -1.6840 h1         1 PE3       0.027450
     64 H292         7.1070     0.4890    -2.0230 h1         1 PE3       0.027450
     65 H271         4.0560     0.2550    -2.1060 h1         1 PE3       0.027700
     66 H272         5.1820    -1.0950    -2.3710 h1         1 PE3       0.027700
     67 H261         3.1300    -2.0800    -1.5920 h1         1 PE3       0.027700
     68 H262         4.2710    -2.1760    -0.2320 h1         1 PE3       0.027700
     69 H241         1.2230    -2.1280     0.0510 h1         1 PE3       0.027700
     70 H242         2.3660    -2.1490     1.4130 h1         1 PE3       0.027700
     71 H231         0.3500    -1.1330     2.2470 h1         1 PE3       0.027200
     72 H232         1.5250     0.1870     2.0550 h1         1 PE3       0.027200
     73 H211        -1.5160     0.5360     1.9880 h1         1 PE3       0.027200
     74 H212        -0.3410     1.8440     1.7220 h1         1 PE3       0.027200
     75 H201        -2.3530     2.5120     0.5840 h1         1 PE3       0.027700
     76 H202        -1.2050     2.0290    -0.6850 h1         1 PE3       0.027700
     77 H181        -4.2520     1.9750    -0.9780 h1         1 PE3       0.027700
     78 H182        -3.1060     1.4220    -2.2190 h1         1 PE3       0.027700
     79 H171        -5.1550     0.2280    -2.6230 h1         1 PE3       0.027700
     80 H172        -4.0310    -0.9490    -1.9090 h1         1 PE3       0.027700
     81 H151        -7.0830    -1.1440    -1.7620 h1         1 PE3       0.027450
     82 H152        -5.9580    -2.2800    -0.9850 h1         1 PE3       0.027450
     83 H141        -7.9960    -2.3820     0.2890 h1         1 PE3       0.027450
     84 H142        -6.8350    -1.4780     1.2870 h1         1 PE3       0.027450
     85 H121        -9.8790    -1.2140     1.4840 h1         1 PE3       0.028200
     86 H122        -8.7160    -0.2560     2.4280 h1         1 PE3       0.028200
     87 H111       -10.7210     1.0680     2.2970 h1         1 PE3       0.028200
     88 H112        -9.5530     1.8330     1.1970 h1         1 PE3       0.028200
     89 H91        -12.5950     2.0540     0.9350 h1         1 PE3       0.028700
     90 H92        -11.4280     2.7570    -0.2060 h1         1 PE3       0.028700
     91 H81        -13.4570     2.4170    -1.4530 h1         1 PE3       0.028200
     92 H82        -12.3290     1.1550    -1.9950 h1         1 PE3       0.028200
     93 H61        -15.3800     0.9340    -2.1230 h1         1 PE3       0.028200
     94 H62        -14.2500    -0.3540    -2.5970 h1         1 PE3       0.028200
     95 H51        -16.3010    -1.4570    -1.9910 h1         1 PE3       0.027450
     96 H52        -15.1650    -1.7630    -0.6590 h1         1 PE3       0.027450
     97 H31        -18.2120    -1.7710    -0.3850 h1         1 PE3       0.025950
     98 H32        -17.0740    -2.0070     0.9590 h1         1 PE3       0.025950
     99 H21        -19.1330    -1.1560     1.9040 h1         1 PE3       0.025200
    100 H22        -17.9230     0.1310     2.0170 h1         1 PE3       0.025200
    101 HO1        -19.9290     0.9480     1.2430 ho         1 PE3       0.499000
@<TRIPOS>BOND
     1     1     2 1   
     2     1    44 1   
     3     2     3 1   
     4     2    45 1   
     5     2    46 1   
     6     3     4 1   
     7     3    47 1   
     8     3    48 1   
     9     4     5 1   
    10     5     6 1   
    11     5    49 1   
    12     5    50 1   
    13     6     7 1   
    14     6    51 1   
    15     6    52 1   
    16     7     8 1   
    17     8     9 1   
    18     8    53 1   
    19     8    54 1   
    20     9    10 1   
    21     9    55 1   
    22     9    56 1   
    23    10    11 1   
    24    11    12 1   
    25    11    57 1   
    26    11    58 1   
    27    12    13 1   
    28    12    59 1   
    29    12    60 1   
    30    13    14 1   
    31    14    15 1   
    32    14    61 1   
    33    14    62 1   
    34    15    16 1   
    35    15    63 1   
    36    15    64 1   
    37    16    17 1   
    38    17    18 1   
    39    17    65 1   
    40    17    66 1   
    41    18    19 1   
    42    18    67 1   
    43    18    68 1   
    44    19    20 1   
    45    20    21 1   
    46    20    69 1   
    47    20    70 1   
    48    21    22 1   
    49    21    71 1   
    50    21    72 1   
    51    22    23 1   
    52    23    24 1   
    53    23    73 1   
    54    23    74 1   
    55    24    25 1   
    56    24    75 1   
    57    24    76 1   
    58    25    26 1   
    59    26    27 1   
    60    26    77 1   
    61    26    78 1   
    62    27    28 1   
    63    27    79 1   
    64    27    80 1   
    65    28    29 1   
    66    29    30 1   
    67    29    81 1   
    68    29    82 1   
    69    30    31 1   
    70    30    83 1   
    71    30    84 1   
    72    31    32 1   
    73    32    33 1   
    74    32    85 1   
    75    32    86 1   
    76    33    34 1   
    77    33    87 1   
    78    33    88 1   
    79    34    35 1   
    80    35    36 1   
    81    35    89 1   
    82    35    90 1   
    83    36    37 1   
    84    36    91 1   
    85    36    92 1   
    86    37    38 1   
    87    38    39 1   
    88    38    93 1   
    89    38    94 1   
    90    39    40 1   
    91    39    95 1   
    92    39    96 1   
    93    40    41 1   
    94    41    42 1   
    95    41    97 1   
    96    41    98 1   
    97    42    43 1   
    98    42    99 1   
    99    42   100 1   
   100    43   101 1   
@<TRIPOS>SUBSTRUCTURE
     1 PE3         1 TEMP              0 ****  ****    0 ROOT
