@<TRIPOS>MOLECULE
PE4
   58    57     1     0     0
SMALL
No Charge or Current Charge


@<TRIPOS>ATOM
      1 O1           0.3690    -0.6740   -10.6140 oh         1 PE4      -0.709000
      2 C1           1.4530    -0.3390    -9.7250 c3         1 PE4       0.163600
      3 C2           1.0910     0.8590    -8.8060 c3         1 PE4       0.160600
      4 O2           0.0650     0.4540    -7.8780 os         1 PE4      -0.433000
      5 C3          -0.3630     1.4910    -6.9720 c3         1 PE4       0.161600
      6 C4          -1.4490     0.9230    -6.0270 c3         1 PE4       0.161600
      7 O3          -0.8310     0.0190    -5.0890 os         1 PE4      -0.434000
      8 C5          -1.7460    -0.5880    -4.1540 c3         1 PE4       0.161600
      9 C6          -0.9540    -1.5170    -3.2040 c3         1 PE4       0.162600
     10 O4          -0.1740    -0.7110    -2.2980 os         1 PE4      -0.434000
     11 C7           0.6220    -1.4650    -1.3620 c3         1 PE4       0.161600
     12 C8           1.3930    -0.4830    -0.4480 c3         1 PE4       0.162600
     13 O5           0.4660     0.1390     0.4630 os         1 PE4      -0.436000
     14 C9           1.0640     1.0900     1.3670 c3         1 PE4       0.161600
     15 C10         -0.0340     1.6680     2.2920 c3         1 PE4       0.162600
     16 O6          -0.4390     0.6540     3.2330 os         1 PE4      -0.437000
     17 C11         -1.4710     1.0690     4.1500 c3         1 PE4       0.162600
     18 C12         -1.7990    -0.1030     5.1060 c3         1 PE4       0.161600
     19 O7          -0.7060    -0.2780     6.0290 os         1 PE4      -0.435000
     20 C13         -0.8870    -1.3540     6.9710 c3         1 PE4       0.162600
     21 C14          0.3470    -1.4230     7.9040 c3         1 PE4       0.162600
     22 O8           0.3210    -0.2980     8.8070 os         1 PE4      -0.449000
     23 C15          1.4250    -0.2470     9.7220 c3         1 PE4       0.161600
     24 C16          1.2440     1.0000    10.6020 c3         1 PE4      -0.091100
     25 HO1          0.6500    -1.4740   -11.1170 ho         1 PE4       0.499000
     26 H11          2.3440    -0.0700   -10.3080 h1         1 PE4       0.024700
     27 H12          1.7180    -1.2010    -9.0990 h1         1 PE4       0.024700
     28 H21          0.7540     1.7040    -9.4200 h1         1 PE4       0.026200
     29 H22          1.9920     1.1730    -8.2620 h1         1 PE4       0.026200
     30 H31         -0.7880     2.3330    -7.5330 h1         1 PE4       0.027200
     31 H32          0.4800     1.8680    -6.3770 h1         1 PE4       0.027200
     32 H41         -2.2200     0.4110    -6.6190 h1         1 PE4       0.028200
     33 H42         -1.9250     1.7560    -5.4940 h1         1 PE4       0.028200
     34 H51         -2.4950    -1.1840    -4.6900 h1         1 PE4       0.027700
     35 H52         -2.2730     0.1750    -3.5660 h1         1 PE4       0.027700
     36 H61         -0.3100    -2.1830    -3.7930 h1         1 PE4       0.027200
     37 H62         -1.6650    -2.1380    -2.6420 h1         1 PE4       0.027200
     38 H71          1.3460    -2.0920    -1.8990 h1         1 PE4       0.027700
     39 H72         -0.0080    -2.1220    -0.7470 h1         1 PE4       0.027700
     40 H81          1.9040     0.2680    -1.0650 h1         1 PE4       0.027700
     41 H82          2.1550    -1.0430     0.1090 h1         1 PE4       0.027700
     42 H91          1.5210     1.9130     0.8030 h1         1 PE4       0.028200
     43 H92          1.8460     0.6170     1.9760 h1         1 PE4       0.028200
     44 H101        -0.8850     2.0050     1.6850 h1         1 PE4       0.028700
     45 H102         0.3730     2.5380     2.8230 h1         1 PE4       0.028700
     46 H111        -2.3810     1.3410     3.5990 h1         1 PE4       0.028700
     47 H112        -1.1520     1.9420     4.7350 h1         1 PE4       0.028700
     48 H121        -1.9720    -1.0160     4.5210 h1         1 PE4       0.028200
     49 H122        -2.7220     0.1330     5.6510 h1         1 PE4       0.028200
     50 H131        -0.9830    -2.3100     6.4410 h1         1 PE4       0.026700
     51 H132        -1.7930    -1.2040     7.5720 h1         1 PE4       0.026700
     52 H141         1.2640    -1.4220     7.2990 h1         1 PE4       0.028200
     53 H142         0.3110    -2.3640     8.4680 h1         1 PE4       0.028200
     54 H151         2.3780    -0.1780     9.1800 h1         1 PE4       0.016700
     55 H152         1.4480    -1.1430    10.3560 h1         1 PE4       0.016700
     56 H161         2.0690     1.0810    11.3190 hc         1 PE4       0.042033
     57 H162         1.2330     1.9080     9.9870 hc         1 PE4       0.042033
     58 H163         0.3040     0.9440    11.1630 hc         1 PE4       0.042033
@<TRIPOS>BOND
     1     1     2 1   
     2     1    25 1   
     3     2     3 1   
     4     2    26 1   
     5     2    27 1   
     6     3     4 1   
     7     3    28 1   
     8     3    29 1   
     9     4     5 1   
    10     5     6 1   
    11     5    30 1   
    12     5    31 1   
    13     6     7 1   
    14     6    32 1   
    15     6    33 1   
    16     7     8 1   
    17     8     9 1   
    18     8    34 1   
    19     8    35 1   
    20     9    10 1   
    21     9    36 1   
    22     9    37 1   
    23    10    11 1   
    24    11    12 1   
    25    11    38 1   
    26    11    39 1   
    27    12    13 1   
    28    12    40 1   
    29    12    41 1   
    30    13    14 1   
    31    14    15 1   
    32    14    42 1   
    33    14    43 1   
    34    15    16 1   
    35    15    44 1   
    36    15    45 1   
    37    16    17 1   
    38    17    18 1   
    39    17    46 1   
    40    17    47 1   
    41    18    19 1   
    42    18    48 1   
    43    18    49 1   
    44    19    20 1   
    45    20    21 1   
    46    20    50 1   
    47    20    51 1   
    48    21    22 1   
    49    21    52 1   
    50    21    53 1   
    51    22    23 1   
    52    23    24 1   
    53    23    54 1   
    54    23    55 1   
    55    24    56 1   
    56    24    57 1   
    57    24    58 1   
@<TRIPOS>SUBSTRUCTURE
     1 PE4         1 TEMP              0 ****  ****    0 ROOT
