@<TRIPOS>MOLECULE
PE4
   58    57     1     0     0
SMALL
bcc


@<TRIPOS>ATOM
      1 O1           0.7210    -0.2440    -9.8310 oh         1 PE4      -0.586800
      2 C1           1.5040     0.5340    -8.9550 c3         1 PE4       0.140400
      3 C2           0.6070     1.3950    -8.1030 c3         1 PE4       0.137400
      4 O2          -0.1810     0.5860    -7.2660 os         1 PE4      -0.386600
      5 C3          -0.9920     1.3360    -6.3990 c3         1 PE4       0.138400
      6 C4          -1.8250     0.4130    -5.5480 c3         1 PE4       0.138400
      7 O3          -0.9900    -0.3510    -4.7140 os         1 PE4      -0.387600
      8 C5          -1.7110    -1.1830    -3.8420 c3         1 PE4       0.138400
      9 C6          -0.7580    -2.0050    -3.0130 c3         1 PE4       0.139400
     10 O4           0.0070    -1.1630    -2.1890 os         1 PE4      -0.387600
     11 C7           0.8730    -1.8740    -1.3420 c3         1 PE4       0.138400
     12 C8           1.6900    -0.9090    -0.5220 c3         1 PE4       0.139400
     13 O5           0.8450    -0.1720     0.3250 os         1 PE4      -0.389600
     14 C9           1.5440     0.7390     1.1330 c3         1 PE4       0.138400
     15 C10          0.5690     1.5270     1.9690 c3         1 PE4       0.139400
     16 O6          -0.0730     0.6720     2.8810 os         1 PE4      -0.390600
     17 C11         -1.0490     1.3260     3.6480 c3         1 PE4       0.139400
     18 C12         -1.6610     0.3590     4.6280 c3         1 PE4       0.138400
     19 O7          -0.7050    -0.0150     5.5870 os         1 PE4      -0.388600
     20 C13         -1.2110    -0.9230     6.5320 c3         1 PE4       0.139400
     21 C14         -0.1610    -1.2190     7.5720 c3         1 PE4       0.139400
     22 O8           0.1290    -0.0520     8.2980 os         1 PE4      -0.402600
     23 C15          1.0410    -0.2710     9.3490 c3         1 PE4       0.138400
     24 C16          1.3470     1.0470    10.0250 c3         1 PE4      -0.091100
     25 HO1          1.3130    -0.7890   -10.3580 ho         1 PE4       0.400000
     26 H11          2.1810     1.2060    -9.4970 h1         1 PE4       0.024700
     27 H12          2.1310    -0.0900    -8.3040 h1         1 PE4       0.024700
     28 H21         -0.0230     2.0300    -8.7420 h1         1 PE4       0.026200
     29 H22          1.2440     2.0690    -7.5130 h1         1 PE4       0.026200
     30 H31         -1.6750     1.9900    -6.9590 h1         1 PE4       0.027200
     31 H32         -0.3830     1.9890    -5.7560 h1         1 PE4       0.027200
     32 H41         -2.4420    -0.2350    -6.1860 h1         1 PE4       0.028200
     33 H42         -2.5170     1.0300    -4.9570 h1         1 PE4       0.028200
     34 H51         -2.3600    -1.8740    -4.3970 h1         1 PE4       0.027700
     35 H52         -2.3650    -0.5910    -3.1850 h1         1 PE4       0.027700
     36 H61         -0.1130    -2.6070    -3.6680 h1         1 PE4       0.027200
     37 H62         -1.3530    -2.7110    -2.4160 h1         1 PE4       0.027200
     38 H71          1.5660    -2.5020    -1.9180 h1         1 PE4       0.027700
     39 H72          0.3100    -2.5470    -0.6790 h1         1 PE4       0.027700
     40 H81          2.2620    -0.2440    -1.1850 h1         1 PE4       0.027700
     41 H82          2.4230    -1.4900     0.0550 h1         1 PE4       0.027700
     42 H91          2.1220     1.4480     0.5240 h1         1 PE4       0.028200
     43 H92          2.2640     0.2200     1.7830 h1         1 PE4       0.028200
     44 H101        -0.1600     2.0290     1.3160 h1         1 PE4       0.028700
     45 H102         1.1250     2.3180     2.4920 h1         1 PE4       0.028700
     46 H111        -1.8530     1.7230     3.0110 h1         1 PE4       0.028700
     47 H112        -0.6220     2.1830     4.1890 h1         1 PE4       0.028700
     48 H121        -2.0510    -0.5200     4.0940 h1         1 PE4       0.028200
     49 H122        -2.5230     0.8520     5.1010 h1         1 PE4       0.028200
     50 H131        -1.5000    -1.8710     6.0560 h1         1 PE4       0.026700
     51 H132        -2.1130    -0.5250     7.0190 h1         1 PE4       0.026700
     52 H141         0.7440    -1.6210     7.0930 h1         1 PE4       0.028200
     53 H142        -0.5510    -2.0100     8.2280 h1         1 PE4       0.028200
     54 H151         1.9690    -0.7210     8.9690 h1         1 PE4       0.016700
     55 H152         0.6240    -0.9810    10.0780 h1         1 PE4       0.016700
     56 H161         2.0390     0.8860    10.8510 hc         1 PE4       0.042033
     57 H162         1.8100     1.7510     9.3330 hc         1 PE4       0.042033
     58 H163         0.4450     1.5070    10.4300 hc         1 PE4       0.042033
@<TRIPOS>BOND
     1     1     2 1   
     2     1    25 1   
     3     2     3 1   
     4     2    26 1   
     5     2    27 1   
     6     3     4 1   
     7     3    28 1   
     8     3    29 1   
     9     4     5 1   
    10     5     6 1   
    11     5    30 1   
    12     5    31 1   
    13     6     7 1   
    14     6    32 1   
    15     6    33 1   
    16     7     8 1   
    17     8     9 1   
    18     8    34 1   
    19     8    35 1   
    20     9    10 1   
    21     9    36 1   
    22     9    37 1   
    23    10    11 1   
    24    11    12 1   
    25    11    38 1   
    26    11    39 1   
    27    12    13 1   
    28    12    40 1   
    29    12    41 1   
    30    13    14 1   
    31    14    15 1   
    32    14    42 1   
    33    14    43 1   
    34    15    16 1   
    35    15    44 1   
    36    15    45 1   
    37    16    17 1   
    38    17    18 1   
    39    17    46 1   
    40    17    47 1   
    41    18    19 1   
    42    18    48 1   
    43    18    49 1   
    44    19    20 1   
    45    20    21 1   
    46    20    50 1   
    47    20    51 1   
    48    21    22 1   
    49    21    52 1   
    50    21    53 1   
    51    22    23 1   
    52    23    24 1   
    53    23    54 1   
    54    23    55 1   
    55    24    56 1   
    56    24    57 1   
    57    24    58 1   
@<TRIPOS>SUBSTRUCTURE
     1 PE4         1 TEMP              0 ****  ****    0 ROOT
