@<TRIPOS>MOLECULE
PE5
   65    64     1     0     0
SMALL
bcc


@<TRIPOS>ATOM
      1 C48          1.3260     1.4260    11.0080 c3         1 PE5      -0.091100
      2 C50          1.5600     0.1280    10.2670 c3         1 PE5       0.138400
      3 O1           0.4530    -0.1380     9.4370 os         1 PE5      -0.401600
      4 C1           0.6050    -1.3140     8.6850 c3         1 PE5       0.140400
      5 C2          -0.6130    -1.5320     7.8250 c3         1 PE5       0.138400
      6 O2          -0.7170    -0.5010     6.8760 os         1 PE5      -0.386600
      7 C3          -1.8270    -0.6540     6.0300 c3         1 PE5       0.139400
      8 C4          -1.9320     0.5300     5.1040 c3         1 PE5       0.138400
      9 O3          -0.8170     0.5740     4.2510 os         1 PE5      -0.386600
     10 C5          -0.8770     1.6460     3.3450 c3         1 PE5       0.138400
     11 C6           0.3860     1.7060     2.5270 c3         1 PE5       0.138400
     12 O4           0.4940     0.5600     1.7210 os         1 PE5      -0.386600
     13 C7           1.6200     0.6020     0.8810 c3         1 PE5       0.138400
     14 C8           1.6970    -0.6570     0.0580 c3         1 PE5       0.138400
     15 O5           0.5930    -0.7320    -0.8080 os         1 PE5      -0.387600
     16 C9           0.6510    -1.8520    -1.6550 c3         1 PE5       0.138400
     17 C10         -0.5990    -1.9290    -2.4930 c3         1 PE5       0.138400
     18 O6          -0.6730    -0.8190    -3.3510 os         1 PE5      -0.387600
     19 C11         -1.8060    -0.8600    -4.1810 c3         1 PE5       0.138400
     20 C12         -1.8770     0.3900    -5.0190 c3         1 PE5       0.138400
     21 O7          -0.7900     0.4390    -5.9080 os         1 PE5      -0.387600
     22 C13         -0.8300     1.5720    -6.7370 c3         1 PE5       0.138400
     23 C14          0.3810     1.5990    -7.6340 c3         1 PE5       0.138400
     24 O8           0.3470     0.5110    -8.5220 os         1 PE5      -0.387600
     25 C15          1.4390     0.5080    -9.4070 c3         1 PE5       0.136400
     26 C16          1.3680    -0.6920   -10.3150 c3         1 PE5       0.140400
     27 O52          0.2360    -0.5880   -11.1490 oh         1 PE5      -0.586800
     28 H481         2.1720     1.6330    11.6630 hc         1 PE5       0.042367
     29 H482         1.2210     2.2650    10.3210 hc         1 PE5       0.042367
     30 H483         0.4300     1.3730    11.6280 hc         1 PE5       0.042367
     31 H501         2.4800     0.1950     9.6700 h1         1 PE5       0.016700
     32 H502         1.7090    -0.6920    10.9840 h1         1 PE5       0.016700
     33 H11          1.5050    -1.2660     8.0550 h1         1 PE5       0.027700
     34 H12          0.7220    -2.1920     9.3370 h1         1 PE5       0.027700
     35 H21         -0.5190    -2.5120     7.3380 h1         1 PE5       0.026700
     36 H22         -1.5140    -1.5760     8.4550 h1         1 PE5       0.026700
     37 H31         -1.7560    -1.5840     5.4470 h1         1 PE5       0.027200
     38 H32         -2.7610    -0.7140     6.6080 h1         1 PE5       0.027200
     39 H41         -2.8650     0.4350     4.5320 h1         1 PE5       0.027700
     40 H42         -2.0130     1.4580     5.6890 h1         1 PE5       0.027700
     41 H51         -1.7520     1.5540     2.6850 h1         1 PE5       0.027200
     42 H52A        -0.9800     2.6040     3.8740 h1         1 PE5       0.027200
     43 H61          0.3490     2.6180     1.9150 h1         1 PE5       0.028200
     44 H62          1.2580     1.8030     3.1900 h1         1 PE5       0.028200
     45 H71          1.5850     1.4810     0.2220 h1         1 PE5       0.027200
     46 H72          2.5480     0.6810     1.4650 h1         1 PE5       0.027200
     47 H81          2.6410    -0.6370    -0.5040 h1         1 PE5       0.027200
     48 H82          1.7380    -1.5370     0.7160 h1         1 PE5       0.027200
     49 H91          1.5390    -1.8100    -2.3020 h1         1 PE5       0.027200
     50 H92          0.7250    -2.7840    -1.0760 h1         1 PE5       0.027200
     51 H101        -0.5690    -2.8690    -3.0620 h1         1 PE5       0.027200
     52 H102        -1.4840    -1.9800    -1.8420 h1         1 PE5       0.027200
     53 H111        -1.7860    -1.7490    -4.8280 h1         1 PE5       0.028200
     54 H112        -2.7290    -0.9200    -3.5880 h1         1 PE5       0.028200
     55 H121        -2.8320     0.3790    -5.5640 h1         1 PE5       0.028200
     56 H122        -1.8930     1.2770    -4.3700 h1         1 PE5       0.028200
     57 H131        -1.7470     1.5840    -7.3430 h1         1 PE5       0.028200
     58 H132        -0.8310     2.4970    -6.1430 h1         1 PE5       0.028200
     59 H141         0.3790     2.5540    -8.1780 h1         1 PE5       0.027700
     60 H142         1.2980     1.5830    -7.0270 h1         1 PE5       0.027700
     61 H151         1.4590     1.4310   -10.0060 h1         1 PE5       0.025700
     62 H152         2.3900     0.4670    -8.8590 h1         1 PE5       0.025700
     63 H161         2.3010    -0.7190   -10.8920 h1         1 PE5       0.025200
     64 H162         1.3440    -1.6060    -9.7080 h1         1 PE5       0.025200
     65 H52          0.1990    -1.3740   -11.7000 ho         1 PE5       0.400000
@<TRIPOS>BOND
     1     1     2 1   
     2     1    28 1   
     3     1    29 1   
     4     1    30 1   
     5     2     3 1   
     6     2    31 1   
     7     2    32 1   
     8     3     4 1   
     9     4     5 1   
    10     4    33 1   
    11     4    34 1   
    12     5     6 1   
    13     5    35 1   
    14     5    36 1   
    15     6     7 1   
    16     7     8 1   
    17     7    37 1   
    18     7    38 1   
    19     8     9 1   
    20     8    39 1   
    21     8    40 1   
    22     9    10 1   
    23    10    11 1   
    24    10    41 1   
    25    10    42 1   
    26    11    12 1   
    27    11    43 1   
    28    11    44 1   
    29    12    13 1   
    30    13    14 1   
    31    13    45 1   
    32    13    46 1   
    33    14    15 1   
    34    14    47 1   
    35    14    48 1   
    36    15    16 1   
    37    16    17 1   
    38    16    49 1   
    39    16    50 1   
    40    17    18 1   
    41    17    51 1   
    42    17    52 1   
    43    18    19 1   
    44    19    20 1   
    45    19    53 1   
    46    19    54 1   
    47    20    21 1   
    48    20    55 1   
    49    20    56 1   
    50    21    22 1   
    51    22    23 1   
    52    22    57 1   
    53    22    58 1   
    54    23    24 1   
    55    23    59 1   
    56    23    60 1   
    57    24    25 1   
    58    25    26 1   
    59    25    61 1   
    60    25    62 1   
    61    26    27 1   
    62    26    63 1   
    63    26    64 1   
    64    27    65 1   
@<TRIPOS>SUBSTRUCTURE
     1 PE5         1 TEMP              0 ****  ****    0 ROOT
