@<TRIPOS>MOLECULE
PE5
   65    64     1     0     0
SMALL
No Charge or Current Charge


@<TRIPOS>ATOM
      1 C48          0.3020     1.3710    12.0400 c3         1 PE5      -0.091100
      2 C50          1.2900     0.6320    11.1230 c3         1 PE5       0.161600
      3 O1           0.5220    -0.1450    10.1930 os         1 PE5      -0.448000
      4 C1           1.3120    -0.9040     9.2540 c3         1 PE5       0.163600
      5 C2           0.3670    -1.6830     8.3080 c3         1 PE5       0.161600
      6 O2          -0.2650    -0.7560     7.4040 os         1 PE5      -0.433000
      7 C3          -1.1840    -1.3620     6.4730 c3         1 PE5       0.162600
      8 C4          -1.7780    -0.2620     5.5610 c3         1 PE5       0.161600
      9 O3          -0.7600     0.1910     4.6460 os         1 PE5      -0.433000
     10 C5          -1.1880     1.2300     3.7430 c3         1 PE5       0.161600
     11 C6          -0.0100     1.6100     2.8150 c3         1 PE5       0.161600
     12 O4           0.2120     0.5410     1.8740 os         1 PE5      -0.433000
     13 C7           1.2990     0.7710     0.9550 c3         1 PE5       0.161600
     14 C8           1.4180    -0.4410     0.0010 c3         1 PE5       0.161600
     15 O5           0.3090    -0.4270    -0.9190 os         1 PE5      -0.434000
     16 C9           0.3000    -1.5190    -1.8600 c3         1 PE5       0.161600
     17 C10         -0.9290    -1.3750    -2.7890 c3         1 PE5       0.161600
     18 O6          -0.7100    -0.2740    -3.6920 os         1 PE5      -0.434000
     19 C11         -1.7960    -0.0280    -4.6080 c3         1 PE5       0.161600
     20 C12         -1.4260     1.1650    -5.5220 c3         1 PE5       0.161600
     21 O7          -0.4080     0.7480    -6.4530 os         1 PE5      -0.434000
     22 C13          0.0340     1.7800    -7.3570 c3         1 PE5       0.161600
     23 C14          1.1130     1.1980    -8.3010 c3         1 PE5       0.161600
     24 O8           0.4840     0.3040    -9.2420 os         1 PE5      -0.434000
     25 C15          1.3930    -0.3170   -10.1730 c3         1 PE5       0.159600
     26 C16          0.5940    -1.2420   -11.1310 c3         1 PE5       0.163600
     27 O52         -0.2590    -0.4860   -12.0130 oh         1 PE5      -0.709000
     28 H481         0.8470     1.9800    12.7710 hc         1 PE5       0.042367
     29 H482        -0.3460     2.0330    11.4550 hc         1 PE5       0.042367
     30 H483        -0.3250     0.6570    12.5870 hc         1 PE5       0.042367
     31 H501         1.9180     1.3620    10.5960 h1         1 PE5       0.016700
     32 H502         1.9380    -0.0150    11.7290 h1         1 PE5       0.016700
     33 H11          1.9620    -0.2450     8.6630 h1         1 PE5       0.027700
     34 H12          1.9490    -1.6210     9.7880 h1         1 PE5       0.027700
     35 H21          0.9570    -2.4180     7.7460 h1         1 PE5       0.026700
     36 H22         -0.3800    -2.2270     8.9020 h1         1 PE5       0.026700
     37 H31         -0.6790    -2.1180     5.8570 h1         1 PE5       0.027200
     38 H32         -2.0030    -1.8530     7.0140 h1         1 PE5       0.027200
     39 H41         -2.6260    -0.6830     5.0060 h1         1 PE5       0.027700
     40 H42         -2.1500     0.5660     6.1780 h1         1 PE5       0.027700
     41 H51         -2.0410     0.8990     3.1370 h1         1 PE5       0.027200
     42 H52A        -1.4960     2.1190     4.3080 h1         1 PE5       0.027200
     43 H61         -0.2630     2.5370     2.2840 h1         1 PE5       0.028200
     44 H62          0.8880     1.7970     3.4200 h1         1 PE5       0.028200
     45 H71          1.1330     1.6850     0.3700 h1         1 PE5       0.027200
     46 H72          2.2430     0.8840     1.5050 h1         1 PE5       0.027200
     47 H81          2.3670    -0.3670    -0.5470 h1         1 PE5       0.027200
     48 H82          1.4340    -1.3700     0.5870 h1         1 PE5       0.027200
     49 H91          1.2170    -1.5280    -2.4630 h1         1 PE5       0.027200
     50 H92          0.2310    -2.4770    -1.3280 h1         1 PE5       0.027200
     51 H101        -1.0570    -2.3080    -3.3530 h1         1 PE5       0.027200
     52 H102        -1.8310    -1.2160    -2.1830 h1         1 PE5       0.027200
     53 H111        -2.0000    -0.9130    -5.2250 h1         1 PE5       0.028200
     54 H112        -2.7100     0.2210    -4.0540 h1         1 PE5       0.028200
     55 H121        -2.3250     1.4890    -6.0630 h1         1 PE5       0.028200
     56 H122        -1.0780     2.0050    -4.9060 h1         1 PE5       0.028200
     57 H131        -0.8030     2.1690    -7.9510 h1         1 PE5       0.028200
     58 H132         0.4700     2.6150    -6.7940 h1         1 PE5       0.028200
     59 H141         1.6020     2.0250    -8.8330 h1         1 PE5       0.027700
     60 H142         1.8760     0.6750    -7.7090 h1         1 PE5       0.027700
     61 H151         1.9320     0.4390   -10.7590 h1         1 PE5       0.025700
     62 H152         2.1350    -0.9220    -9.6340 h1         1 PE5       0.025700
     63 H161         1.3100    -1.8320   -11.7190 h1         1 PE5       0.025200
     64 H162         0.0010    -1.9470   -10.5320 h1         1 PE5       0.025200
     65 H52         -0.7740    -1.1400   -12.5420 ho         1 PE5       0.499000
@<TRIPOS>BOND
     1     1     2 1   
     2     1    28 1   
     3     1    29 1   
     4     1    30 1   
     5     2     3 1   
     6     2    31 1   
     7     2    32 1   
     8     3     4 1   
     9     4     5 1   
    10     4    33 1   
    11     4    34 1   
    12     5     6 1   
    13     5    35 1   
    14     5    36 1   
    15     6     7 1   
    16     7     8 1   
    17     7    37 1   
    18     7    38 1   
    19     8     9 1   
    20     8    39 1   
    21     8    40 1   
    22     9    10 1   
    23    10    11 1   
    24    10    41 1   
    25    10    42 1   
    26    11    12 1   
    27    11    43 1   
    28    11    44 1   
    29    12    13 1   
    30    13    14 1   
    31    13    45 1   
    32    13    46 1   
    33    14    15 1   
    34    14    47 1   
    35    14    48 1   
    36    15    16 1   
    37    16    17 1   
    38    16    49 1   
    39    16    50 1   
    40    17    18 1   
    41    17    51 1   
    42    17    52 1   
    43    18    19 1   
    44    19    20 1   
    45    19    53 1   
    46    19    54 1   
    47    20    21 1   
    48    20    55 1   
    49    20    56 1   
    50    21    22 1   
    51    22    23 1   
    52    22    57 1   
    53    22    58 1   
    54    23    24 1   
    55    23    59 1   
    56    23    60 1   
    57    24    25 1   
    58    25    26 1   
    59    25    61 1   
    60    25    62 1   
    61    26    27 1   
    62    26    63 1   
    63    26    64 1   
    64    27    65 1   
@<TRIPOS>SUBSTRUCTURE
     1 PE5         1 TEMP              0 ****  ****    0 ROOT
