@<TRIPOS>MOLECULE
PE7
   52    51     1     0     0
SMALL
No Charge or Current Charge


@<TRIPOS>ATOM
      1 S1           1.0410    -1.6970    -9.7430 sh         1 PE7      -0.458800
      2 C2          -0.0640    -1.1510    -8.3520 c3         1 PE7       0.080600
      3 C3           0.5030     0.0190    -7.5260 c3         1 PE7       0.168600
      4 O4          -0.4470     0.3350    -6.4940 os         1 PE7      -0.450000
      5 C5          -0.0510     1.4190    -5.6280 c3         1 PE7       0.162600
      6 C6          -1.1510     1.6430    -4.5630 c3         1 PE7       0.161600
      7 O7          -1.1260     0.5490    -3.6240 os         1 PE7      -0.435000
      8 C8          -2.1170     0.6360    -2.5810 c3         1 PE7       0.160600
      9 C9          -1.9720    -0.5870    -1.6440 c3         1 PE7       0.162600
     10 O10         -0.7730    -0.4380    -0.8580 os         1 PE7      -0.436000
     11 C11         -0.5170    -1.5260     0.0530 c3         1 PE7       0.161600
     12 C12          0.7850    -1.2330     0.8370 c3         1 PE7       0.162600
     13 O13          0.5380    -0.1740     1.7830 os         1 PE7      -0.438000
     14 C14          1.6840     0.2010     2.5730 c3         1 PE7       0.161600
     15 C15          1.2780     1.3320     3.5480 c3         1 PE7       0.161600
     16 O16          0.4370     0.7830     4.5820 os         1 PE7      -0.437000
     17 C17         -0.0210     1.7460     5.5520 c3         1 PE7       0.161600
     18 C18         -0.9000     1.0270     6.6030 c3         1 PE7       0.161600
     19 O19         -0.0590     0.2140     7.4460 os         1 PE7      -0.436000
     20 C20         -0.7690    -0.5230     8.4630 c3         1 PE7       0.160600
     21 C21          0.2460    -1.3450     9.3030 c3         1 PE7       0.163600
     22 O22          1.0960    -0.4920    10.0970 oh         1 PE7      -0.710000
     23 HS           0.2310    -2.6860   -10.1980 hs         1 PE7       0.216800
     24 H21         -0.2340    -2.0090    -7.6880 h1         1 PE7       0.071700
     25 H22         -1.0320    -0.8540    -8.7760 h1         1 PE7       0.071700
     26 H31          0.6670     0.8840    -8.1820 h1         1 PE7       0.034700
     27 H32          1.4670    -0.2760    -7.0900 h1         1 PE7       0.034700
     28 H51          0.0730     2.3430    -6.2080 h1         1 PE7       0.032200
     29 H52          0.9020     1.1980    -5.1300 h1         1 PE7       0.032200
     30 H61         -2.1290     1.7180    -5.0560 h1         1 PE7       0.028200
     31 H62         -0.9550     2.5910    -4.0450 h1         1 PE7       0.028200
     32 H81         -3.1260     0.6310    -3.0140 h1         1 PE7       0.028200
     33 H82         -1.9990     1.5600    -2.0000 h1         1 PE7       0.028200
     34 H91         -1.9400    -1.5070    -2.2420 h1         1 PE7       0.028200
     35 H92         -2.8510    -0.6370    -0.9880 h1         1 PE7       0.028200
     36 H111        -0.3930    -2.4640    -0.5020 h1         1 PE7       0.028200
     37 H112        -1.3490    -1.6540     0.7580 h1         1 PE7       0.028200
     38 H121         1.5820    -0.9570     0.1340 h1         1 PE7       0.028700
     39 H122         1.0940    -2.1460     1.3620 h1         1 PE7       0.028700
     40 H141         2.4890     0.5660     1.9220 h1         1 PE7       0.028700
     41 H142         2.0680    -0.6560     3.1430 h1         1 PE7       0.028700
     42 H151         0.7580     2.1250     2.9940 h1         1 PE7       0.028200
     43 H152         2.1870     1.7630     3.9880 h1         1 PE7       0.028200
     44 H171        -0.6210     2.5240     5.0620 h1         1 PE7       0.029200
     45 H172         0.8260     2.2340     6.0540 h1         1 PE7       0.029200
     46 H181        -1.6560     0.4150     6.0920 h1         1 PE7       0.028200
     47 H182        -1.4230     1.7820     7.2040 h1         1 PE7       0.028200
     48 H201        -1.4870    -1.2130     8.0010 h1         1 PE7       0.026200
     49 H202        -1.3260     0.1560     9.1230 h1         1 PE7       0.026200
     50 H211         0.8490    -1.9650     8.6270 h1         1 PE7       0.025200
     51 H212        -0.3160    -2.0240     9.9580 h1         1 PE7       0.025200
     52 HO2          1.7460    -1.0790    10.5500 ho         1 PE7       0.500000
@<TRIPOS>BOND
     1     1     2 1   
     2     1    23 1   
     3     2     3 1   
     4     2    24 1   
     5     2    25 1   
     6     3     4 1   
     7     3    26 1   
     8     3    27 1   
     9     4     5 1   
    10     5     6 1   
    11     5    28 1   
    12     5    29 1   
    13     6     7 1   
    14     6    30 1   
    15     6    31 1   
    16     7     8 1   
    17     8     9 1   
    18     8    32 1   
    19     8    33 1   
    20     9    10 1   
    21     9    34 1   
    22     9    35 1   
    23    10    11 1   
    24    11    12 1   
    25    11    36 1   
    26    11    37 1   
    27    12    13 1   
    28    12    38 1   
    29    12    39 1   
    30    13    14 1   
    31    14    15 1   
    32    14    40 1   
    33    14    41 1   
    34    15    16 1   
    35    15    42 1   
    36    15    43 1   
    37    16    17 1   
    38    17    18 1   
    39    17    44 1   
    40    17    45 1   
    41    18    19 1   
    42    18    46 1   
    43    18    47 1   
    44    19    20 1   
    45    20    21 1   
    46    20    48 1   
    47    20    49 1   
    48    21    22 1   
    49    21    50 1   
    50    21    51 1   
    51    22    52 1   
@<TRIPOS>SUBSTRUCTURE
     1 PE7         1 TEMP              0 ****  ****    0 ROOT
