@<TRIPOS>MOLECULE
PE7
   52    51     1     0     0
SMALL
abcg2


@<TRIPOS>ATOM
      1 S1           1.6710    -0.8310    -9.1170 sh         1 PE7      -0.458800
      2 C2           0.3210    -0.8010    -7.8920 c3         1 PE7       0.080600
      3 C3           0.5130     0.4130    -7.0030 c3         1 PE7       0.168600
      4 O4          -0.5000     0.4080    -6.0320 os         1 PE7      -0.450000
      5 C5          -0.4140     1.5050    -5.1550 c3         1 PE7       0.162600
      6 C6          -1.5340     1.4460    -4.1500 c3         1 PE7       0.161600
      7 O7          -1.3750     0.3230    -3.3210 os         1 PE7      -0.435000
      8 C8          -2.3680     0.2410    -2.3310 c3         1 PE7       0.160600
      9 C9          -2.1270    -0.9610    -1.4540 c3         1 PE7       0.162600
     10 O10         -0.9290    -0.7920    -0.7410 os         1 PE7      -0.436000
     11 C11         -0.6370    -1.8750     0.1050 c3         1 PE7       0.161600
     12 C12          0.6790    -1.6360     0.7990 c3         1 PE7       0.162600
     13 O13          0.5670    -0.5290     1.6570 os         1 PE7      -0.438000
     14 C14          1.7710    -0.2220     2.3120 c3         1 PE7       0.161600
     15 C15          1.5710     0.9760     3.2040 c3         1 PE7       0.161600
     16 O16          0.6850     0.6490     4.2440 os         1 PE7      -0.437000
     17 C17          0.4060     1.7420     5.0820 c3         1 PE7       0.161600
     18 C18         -0.5630     1.3240     6.1590 c3         1 PE7       0.161600
     19 O19          0.0490     0.3940     7.0150 os         1 PE7      -0.436000
     20 C20         -0.8060    -0.0450     8.0410 c3         1 PE7       0.160600
     21 C21         -0.0730    -1.0020     8.9450 c3         1 PE7       0.163600
     22 O22          0.9540    -0.3160     9.6230 oh         1 PE7      -0.710000
     23 HS           1.1390    -1.7460    -9.9330 hs         1 PE7       0.216800
     24 H21          0.3400    -1.7150    -7.2980 h1         1 PE7       0.071700
     25 H22         -0.6350    -0.7420    -8.4130 h1         1 PE7       0.071700
     26 H31          0.4730     1.3280    -7.6100 h1         1 PE7       0.034700
     27 H32          1.5060     0.3840    -6.5320 h1         1 PE7       0.034700
     28 H51         -0.4940     2.4540    -5.7030 h1         1 PE7       0.032200
     29 H52          0.5560     1.5180    -4.6370 h1         1 PE7       0.032200
     30 H61         -2.5040     1.4220    -4.6680 h1         1 PE7       0.028200
     31 H62         -1.5120     2.3750    -3.5640 h1         1 PE7       0.028200
     32 H81         -3.3670     0.1430    -2.7790 h1         1 PE7       0.028200
     33 H82         -2.3840     1.1520    -1.7160 h1         1 PE7       0.028200
     34 H91         -2.0980    -1.8750    -2.0630 h1         1 PE7       0.028200
     35 H92         -2.9860    -1.0540    -0.7780 h1         1 PE7       0.028200
     36 H111        -0.5600    -2.8130    -0.4630 h1         1 PE7       0.028200
     37 H112        -1.4320    -2.0200     0.8510 h1         1 PE7       0.028200
     38 H121         1.4720    -1.4780     0.0530 h1         1 PE7       0.028700
     39 H122         0.9430    -2.5450     1.3560 h1         1 PE7       0.028700
     40 H141         2.5630     0.0150     1.5890 h1         1 PE7       0.028700
     41 H142         2.1290    -1.0750     2.9060 h1         1 PE7       0.028700
     42 H151         1.1900     1.8220     2.6130 h1         1 PE7       0.028200
     43 H152         2.5510     1.2790     3.5980 h1         1 PE7       0.028200
     44 H171        -0.0490     2.5670     4.5160 h1         1 PE7       0.029200
     45 H172         1.3250     2.1360     5.5380 h1         1 PE7       0.029200
     46 H181        -1.4710     0.9050     5.7010 h1         1 PE7       0.028200
     47 H182        -0.8720     2.2250     6.7080 h1         1 PE7       0.028200
     48 H201        -1.6830    -0.5660     7.6300 h1         1 PE7       0.026200
     49 H202        -1.1880     0.8050     8.6250 h1         1 PE7       0.026200
     50 H211         0.3190    -1.8360     8.3480 h1         1 PE7       0.025200
     51 H212        -0.8090    -1.4280     9.6390 h1         1 PE7       0.025200
     52 HO2          1.4220    -0.9470    10.1770 ho         1 PE7       0.500000
@<TRIPOS>BOND
     1     1     2 1   
     2     1    23 1   
     3     2     3 1   
     4     2    24 1   
     5     2    25 1   
     6     3     4 1   
     7     3    26 1   
     8     3    27 1   
     9     4     5 1   
    10     5     6 1   
    11     5    28 1   
    12     5    29 1   
    13     6     7 1   
    14     6    30 1   
    15     6    31 1   
    16     7     8 1   
    17     8     9 1   
    18     8    32 1   
    19     8    33 1   
    20     9    10 1   
    21     9    34 1   
    22     9    35 1   
    23    10    11 1   
    24    11    12 1   
    25    11    36 1   
    26    11    37 1   
    27    12    13 1   
    28    12    38 1   
    29    12    39 1   
    30    13    14 1   
    31    14    15 1   
    32    14    40 1   
    33    14    41 1   
    34    15    16 1   
    35    15    42 1   
    36    15    43 1   
    37    16    17 1   
    38    17    18 1   
    39    17    44 1   
    40    17    45 1   
    41    18    19 1   
    42    18    46 1   
    43    18    47 1   
    44    19    20 1   
    45    20    21 1   
    46    20    48 1   
    47    20    49 1   
    48    21    22 1   
    49    21    50 1   
    50    21    51 1   
    51    22    52 1   
@<TRIPOS>SUBSTRUCTURE
     1 PE7         1 TEMP              0 ****  ****    0 ROOT
