@<TRIPOS>MOLECULE
PE8
   59    58     1     0     0
SMALL
abcg2


@<TRIPOS>ATOM
      1 O1           0.8380     0.5820    10.1080 oh         1 PE8      -0.709000
      2 C2           1.6560    -0.1850     9.2540 c3         1 PE8       0.163600
      3 C3           0.8030    -1.1410     8.4590 c3         1 PE8       0.160600
      4 O4          -0.0490    -0.4260     7.6010 os         1 PE8      -0.433000
      5 C5          -0.8350    -1.2680     6.7970 c3         1 PE8       0.161600
      6 C6          -1.7380    -0.4440     5.9160 c3         1 PE8       0.161600
      7 O7          -0.9670     0.3110     5.0170 os         1 PE8      -0.434000
      8 C8          -1.7540     1.0620     4.1270 c3         1 PE8       0.162100
      9 C9          -0.8670     1.8970     3.2400 c3         1 PE8       0.161600
     10 O10         -0.0690     1.0630     2.4390 os         1 PE8      -0.433000
     11 C11          0.7300     1.7860     1.5380 c3         1 PE8       0.162100
     12 C12          1.6170     0.8430     0.7670 c3         1 PE8       0.161600
     13 O13          0.8360    -0.0170    -0.0220 os         1 PE8      -0.432000
     14 C14          1.6180    -0.8780    -0.8110 c3         1 PE8       0.161600
     15 C15          0.7320    -1.8240    -1.5790 c3         1 PE8       0.162100
     16 O16         -0.0680    -1.1050    -2.4820 os         1 PE8      -0.433000
     17 C17         -0.8670    -1.9410    -3.2800 c3         1 PE8       0.161600
     18 C18         -1.7560    -1.1080    -4.1680 c3         1 PE8       0.162100
     19 O19         -0.9720    -0.3600    -5.0610 os         1 PE8      -0.434000
     20 C20         -1.7460     0.3980    -5.9550 c3         1 PE8       0.161600
     21 C21         -0.8480     1.2420    -6.8220 c3         1 PE8       0.161600
     22 O22         -0.0480     0.4180    -7.6300 os         1 PE8      -0.433000
     23 C23          0.7960     1.1520    -8.4800 c3         1 PE8       0.160600
     24 C24          1.6700     0.2160    -9.2760 c3         1 PE8       0.163600
     25 O25          0.8710    -0.5600   -10.1390 oh         1 PE8      -0.709000
     26 HO1          1.4050     1.1680    10.6160 ho         1 PE8       0.499000
     27 H21          2.3820    -0.7870     9.8140 h1         1 PE8       0.024450
     28 H22          2.2310     0.4460     8.5650 h1         1 PE8       0.024450
     29 H31          0.2260    -1.7840     9.1390 h1         1 PE8       0.025700
     30 H32          1.4730    -1.8010     7.8900 h1         1 PE8       0.025700
     31 H51         -1.4680    -1.9240     7.4110 h1         1 PE8       0.027450
     32 H52         -0.2040    -1.9220     6.1780 h1         1 PE8       0.027450
     33 H61         -2.3750     0.2070     6.5320 h1         1 PE8       0.027950
     34 H62         -2.4090    -1.1320     5.3830 h1         1 PE8       0.027950
     35 H81         -2.4270     1.7400     4.6690 h1         1 PE8       0.027700
     36 H82         -2.3890     0.4060     3.5140 h1         1 PE8       0.027700
     37 H91         -0.2450     2.5660     3.8520 h1         1 PE8       0.027200
     38 H92         -1.5140     2.5380     2.6240 h1         1 PE8       0.027200
     39 H111         1.3780     2.5000     2.0670 h1         1 PE8       0.027200
     40 H112         0.1100     2.3720     0.8450 h1         1 PE8       0.027200
     41 H121         2.2510     0.2720     1.4610 h1         1 PE8       0.027200
     42 H122         2.2920     1.4480     0.1460 h1         1 PE8       0.027200
     43 H141         2.2950    -1.4810    -0.1890 h1         1 PE8       0.027200
     44 H142         2.2500    -0.3070    -1.5070 h1         1 PE8       0.027200
     45 H151         0.1120    -2.4080    -0.8840 h1         1 PE8       0.027200
     46 H152         1.3790    -2.5390    -2.1050 h1         1 PE8       0.027200
     47 H171        -1.5110    -2.5830    -2.6630 h1         1 PE8       0.027200
     48 H172        -0.2450    -2.6100    -3.8920 h1         1 PE8       0.027200
     49 H181        -2.3890    -0.4510    -3.5540 h1         1 PE8       0.027700
     50 H182        -2.4310    -1.7890    -4.7050 h1         1 PE8       0.027700
     51 H201        -2.4270     1.0720    -5.4170 h1         1 PE8       0.027950
     52 H202        -2.3730    -0.2520    -6.5830 h1         1 PE8       0.027950
     53 H211        -0.2280     1.8970    -6.1920 h1         1 PE8       0.027450
     54 H212        -1.4840     1.8980    -7.4310 h1         1 PE8       0.027450
     55 H231         1.4510     1.8210    -7.9050 h1         1 PE8       0.025700
     56 H232         0.2110     1.7890    -9.1600 h1         1 PE8       0.025700
     57 H241         2.2520    -0.4090    -8.5860 h1         1 PE8       0.024450
     58 H242         2.3900     0.8340    -9.8280 h1         1 PE8       0.024450
     59 H25          1.4480    -1.1570   -10.6240 ho         1 PE8       0.499000
@<TRIPOS>BOND
     1     1     2 1   
     2     1    26 1   
     3     2     3 1   
     4     2    27 1   
     5     2    28 1   
     6     3     4 1   
     7     3    29 1   
     8     3    30 1   
     9     4     5 1   
    10     5     6 1   
    11     5    31 1   
    12     5    32 1   
    13     6     7 1   
    14     6    33 1   
    15     6    34 1   
    16     7     8 1   
    17     8     9 1   
    18     8    35 1   
    19     8    36 1   
    20     9    10 1   
    21     9    37 1   
    22     9    38 1   
    23    10    11 1   
    24    11    12 1   
    25    11    39 1   
    26    11    40 1   
    27    12    13 1   
    28    12    41 1   
    29    12    42 1   
    30    13    14 1   
    31    14    15 1   
    32    14    43 1   
    33    14    44 1   
    34    15    16 1   
    35    15    45 1   
    36    15    46 1   
    37    16    17 1   
    38    17    18 1   
    39    17    47 1   
    40    17    48 1   
    41    18    19 1   
    42    18    49 1   
    43    18    50 1   
    44    19    20 1   
    45    20    21 1   
    46    20    51 1   
    47    20    52 1   
    48    21    22 1   
    49    21    53 1   
    50    21    54 1   
    51    22    23 1   
    52    23    24 1   
    53    23    55 1   
    54    23    56 1   
    55    24    25 1   
    56    24    57 1   
    57    24    58 1   
    58    25    59 1   
@<TRIPOS>SUBSTRUCTURE
     1 PE8         1 TEMP              0 ****  ****    0 ROOT
