@<TRIPOS>MOLECULE
PE8
   59    58     1     0     0
SMALL
No Charge or Current Charge


@<TRIPOS>ATOM
      1 O1           0.2530     0.6680    11.0660 oh         1 PE8      -0.709000
      2 C2           1.3790     0.5760    10.1710 c3         1 PE8       0.163600
      3 C3           1.2750    -0.6630     9.2410 c3         1 PE8       0.160600
      4 O4           0.1820    -0.4760     8.3190 os         1 PE8      -0.433000
      5 C5          -0.0200    -1.5720     7.4040 c3         1 PE8       0.161600
      6 C6          -1.2070    -1.2380     6.4680 c3         1 PE8       0.161600
      7 O7          -0.7990    -0.2150     5.5370 os         1 PE8      -0.434000
      8 C8          -1.8250     0.1920     4.6110 c3         1 PE8       0.162100
      9 C9          -1.2530     1.2770     3.6670 c3         1 PE8       0.161600
     10 O10         -0.3240     0.6630     2.7530 os         1 PE8      -0.433000
     11 C11          0.2900     1.5770     1.8220 c3         1 PE8       0.162100
     12 C12          1.2490     0.7890     0.8980 c3         1 PE8       0.161600
     13 O13          0.4710    -0.0100    -0.0160 os         1 PE8      -0.432000
     14 C14          1.2540    -0.8040    -0.9290 c3         1 PE8       0.161600
     15 C15          0.3000    -1.5970    -1.8540 c3         1 PE8       0.162100
     16 O16         -0.3180    -0.6860    -2.7850 os         1 PE8      -0.433000
     17 C17         -1.2440    -1.3050    -3.7000 c3         1 PE8       0.161600
     18 C18         -1.8210    -0.2230    -4.6440 c3         1 PE8       0.162100
     19 O19         -0.7960     0.1890    -5.5700 os         1 PE8      -0.434000
     20 C20         -1.2090     1.2100    -6.5010 c3         1 PE8       0.161600
     21 C21         -0.0240     1.5490    -7.4370 c3         1 PE8       0.161600
     22 O22          0.1830     0.4550    -8.3520 os         1 PE8      -0.433000
     23 C23          1.2760     0.6460    -9.2730 c3         1 PE8       0.160600
     24 C24          1.3850    -0.5920   -10.2040 c3         1 PE8       0.163600
     25 O25          0.2590    -0.6880   -11.0990 oh         1 PE8      -0.709000
     26 HO1          0.3600     1.5050    11.5750 ho         1 PE8       0.499000
     27 H21          2.3090     0.4980    10.7490 h1         1 PE8       0.024450
     28 H22          1.4530     1.4810     9.5520 h1         1 PE8       0.024450
     29 H31          1.1270    -1.5650     9.8480 h1         1 PE8       0.025700
     30 H32          2.2200    -0.7730     8.6920 h1         1 PE8       0.025700
     31 H51         -0.2550    -2.4900     7.9590 h1         1 PE8       0.027450
     32 H52          0.8800    -1.7560     6.8040 h1         1 PE8       0.027450
     33 H61         -2.0660    -0.9070     7.0670 h1         1 PE8       0.027950
     34 H62         -1.4980    -2.1480     5.9280 h1         1 PE8       0.027950
     35 H81         -2.6820     0.6110     5.1540 h1         1 PE8       0.027700
     36 H82         -2.1810    -0.6600     4.0170 h1         1 PE8       0.027700
     37 H91         -0.7630     2.0590     4.2620 h1         1 PE8       0.027200
     38 H92         -2.0810     1.7370     3.1140 h1         1 PE8       0.027200
     39 H111         0.8670     2.3380     2.3630 h1         1 PE8       0.027200
     40 H112        -0.4670     2.0890     1.2150 h1         1 PE8       0.027200
     41 H121         1.9110     0.1590     1.5070 h1         1 PE8       0.027200
     42 H122         1.8710     1.5020     0.3420 h1         1 PE8       0.027200
     43 H141         1.8790    -1.5150    -0.3730 h1         1 PE8       0.027200
     44 H142         1.9130    -0.1720    -1.5370 h1         1 PE8       0.027200
     45 H151        -0.4560    -2.1140    -1.2470 h1         1 PE8       0.027200
     46 H152         0.8800    -2.3560    -2.3950 h1         1 PE8       0.027200
     47 H171        -2.0700    -1.7700    -3.1470 h1         1 PE8       0.027200
     48 H172        -0.7490    -2.0850    -4.2950 h1         1 PE8       0.027200
     49 H181        -2.1820     0.6270    -4.0500 h1         1 PE8       0.027700
     50 H182        -2.6750    -0.6470    -5.1880 h1         1 PE8       0.027700
     51 H201        -1.5040     2.1190    -5.9600 h1         1 PE8       0.027950
     52 H202        -2.0660     0.8750    -7.1000 h1         1 PE8       0.027950
     53 H211         0.8760     1.7370    -6.8360 h1         1 PE8       0.027450
     54 H212        -0.2620     2.4670    -7.9910 h1         1 PE8       0.027450
     55 H231         2.2200     0.7610    -8.7240 h1         1 PE8       0.025700
     56 H232         1.1240     1.5490    -9.8800 h1         1 PE8       0.025700
     57 H241         1.4640    -1.4960    -9.5860 h1         1 PE8       0.024450
     58 H242         2.3150    -0.5090   -10.7820 h1         1 PE8       0.024450
     59 H25          0.3700    -1.5240   -11.6090 ho         1 PE8       0.499000
@<TRIPOS>BOND
     1     1     2 1   
     2     1    26 1   
     3     2     3 1   
     4     2    27 1   
     5     2    28 1   
     6     3     4 1   
     7     3    29 1   
     8     3    30 1   
     9     4     5 1   
    10     5     6 1   
    11     5    31 1   
    12     5    32 1   
    13     6     7 1   
    14     6    33 1   
    15     6    34 1   
    16     7     8 1   
    17     8     9 1   
    18     8    35 1   
    19     8    36 1   
    20     9    10 1   
    21     9    37 1   
    22     9    38 1   
    23    10    11 1   
    24    11    12 1   
    25    11    39 1   
    26    11    40 1   
    27    12    13 1   
    28    12    41 1   
    29    12    42 1   
    30    13    14 1   
    31    14    15 1   
    32    14    43 1   
    33    14    44 1   
    34    15    16 1   
    35    15    45 1   
    36    15    46 1   
    37    16    17 1   
    38    17    18 1   
    39    17    47 1   
    40    17    48 1   
    41    18    19 1   
    42    18    49 1   
    43    18    50 1   
    44    19    20 1   
    45    20    21 1   
    46    20    51 1   
    47    20    52 1   
    48    21    22 1   
    49    21    53 1   
    50    21    54 1   
    51    22    23 1   
    52    23    24 1   
    53    23    55 1   
    54    23    56 1   
    55    24    25 1   
    56    24    57 1   
    57    24    58 1   
    58    25    59 1   
@<TRIPOS>SUBSTRUCTURE
     1 PE8         1 TEMP              0 ****  ****    0 ROOT
