@<TRIPOS>MOLECULE
PE9
   18    17     1     0     0
SMALL
bcc


@<TRIPOS>ATOM
      1 CAA          3.2140    -0.2850    -0.0010 c3         1 PE9      -0.089100
      2 CAC          1.9200     0.5170     0.0040 c3         1 PE9      -0.074400
      3 CAE          0.6810    -0.3720     0.0030 c3         1 PE9      -0.076400
      4 CAF         -0.6230     0.4160     0.0050 c3         1 PE9      -0.082400
      5 CAD         -1.8340    -0.4960     0.0090 c3         1 PE9       0.140400
      6 OAB         -3.0090     0.2880     0.0020 oh         1 PE9      -0.599800
      7 HAA1         4.0910     0.3620     0.0010 hc         1 PE9       0.031700
      8 HAA2         3.2770    -0.9310     0.8770 hc         1 PE9       0.031700
      9 HAA3         3.2760    -0.9240    -0.8840 hc         1 PE9       0.031700
     10 HAC1         1.8940     1.1710     0.8800 hc         1 PE9       0.038700
     11 HAC2         1.8920     1.1760    -0.8690 hc         1 PE9       0.038700
     12 HAE1         0.7110    -1.0290    -0.8740 hc         1 PE9       0.036700
     13 HAE2         0.7120    -1.0320     0.8770 hc         1 PE9       0.036700
     14 HAF1        -0.6550     1.0690     0.8830 hc         1 PE9       0.051700
     15 HAF2        -0.6600     1.0670    -0.8750 hc         1 PE9       0.051700
     16 HAD1        -1.7890    -1.1570    -0.8670 h1         1 PE9       0.014700
     17 HAD2        -1.7920    -1.1450     0.8940 h1         1 PE9       0.014700
     18 HAB         -3.7650    -0.3060     0.0180 ho         1 PE9       0.403000
@<TRIPOS>BOND
     1     1     2 1   
     2     1     7 1   
     3     1     8 1   
     4     1     9 1   
     5     2     3 1   
     6     2    10 1   
     7     2    11 1   
     8     3     4 1   
     9     3    12 1   
    10     3    13 1   
    11     4     5 1   
    12     4    14 1   
    13     4    15 1   
    14     5     6 1   
    15     5    16 1   
    16     5    17 1   
    17     6    18 1   
@<TRIPOS>SUBSTRUCTURE
     1 PE9         1 TEMP              0 ****  ****    0 ROOT
