@<TRIPOS>MOLECULE
PE9
   18    17     1     0     0
SMALL
No Charge or Current Charge


@<TRIPOS>ATOM
      1 CAA          3.2640    -0.2810    -0.0010 c3         1 PE9      -0.089100
      2 CAC          1.9450     0.5150     0.0020 c3         1 PE9      -0.074400
      3 CAE          0.6930    -0.3900     0.0040 c3         1 PE9      -0.076400
      4 CAF         -0.6310     0.4070     0.0070 c3         1 PE9      -0.082400
      5 CAD         -1.8780    -0.4990     0.0090 c3         1 PE9       0.163600
      6 OAB         -3.0610     0.3070     0.0110 oh         1 PE9      -0.662000
      7 HAA1         4.1220     0.4020    -0.0020 hc         1 PE9       0.031700
      8 HAA2         3.3350    -0.9190     0.8890 hc         1 PE9       0.031700
      9 HAA3         3.3320    -0.9180    -0.8900 hc         1 PE9       0.031700
     10 HAC1         1.9240     1.1670     0.8840 hc         1 PE9       0.038700
     11 HAC2         1.9200     1.1670    -0.8800 hc         1 PE9       0.038700
     12 HAE1         0.7180    -1.0430    -0.8780 hc         1 PE9       0.036700
     13 HAE2         0.7210    -1.0430     0.8860 hc         1 PE9       0.036700
     14 HAF1        -0.6590     1.0580     0.8890 hc         1 PE9       0.051700
     15 HAF2        -0.6620     1.0580    -0.8760 hc         1 PE9       0.051700
     16 HAD1        -1.8600    -1.1440    -0.8800 h1         1 PE9       0.014700
     17 HAD2        -1.8570    -1.1440     0.8970 h1         1 PE9       0.014700
     18 HAB         -3.8260    -0.3110     0.0120 ho         1 PE9       0.442000
@<TRIPOS>BOND
     1     1     2 1   
     2     1     7 1   
     3     1     8 1   
     4     1     9 1   
     5     2     3 1   
     6     2    10 1   
     7     2    11 1   
     8     3     4 1   
     9     3    12 1   
    10     3    13 1   
    11     4     5 1   
    12     4    14 1   
    13     4    15 1   
    14     5     6 1   
    15     5    16 1   
    16     5    17 1   
    17     6    18 1   
@<TRIPOS>SUBSTRUCTURE
     1 PE9         1 TEMP              0 ****  ****    0 ROOT
