@<TRIPOS>MOLECULE
PEA
   21    21     1     0     0
SMALL
No Charge or Current Charge


@<TRIPOS>ATOM
      1 C1           0.1060    -0.0070     0.3700 ca         1 PEA      -0.130300
      2 C6           0.8000     1.2100     0.2160 ca         1 PEA      -0.096000
      3 C5           2.1660     1.2100    -0.1160 ca         1 PEA      -0.095500
      4 C4           2.8470    -0.0070    -0.2960 ca         1 PEA      -0.075000
      5 C3           2.1590    -1.2230    -0.1450 ca         1 PEA      -0.095500
      6 C2           0.7920    -1.2230     0.1860 ca         1 PEA      -0.096000
      7 C8          -1.3740    -0.0060     0.7220 c3         1 PEA      -0.043100
      8 C7          -2.2540     0.0110    -0.5390 c3         1 PEA       0.097600
      9 N           -3.7240     0.0110    -0.1910 nz         1 PEA      -0.975000
     10 H6           0.2810     2.1570     0.3520 ha         1 PEA       0.110500
     11 H5           2.6970     2.1520    -0.2330 ha         1 PEA       0.132500
     12 H4           3.9040    -0.0070    -0.5530 ha         1 PEA       0.135000
     13 H3           2.6840    -2.1650    -0.2860 ha         1 PEA       0.132500
     14 H2           0.2680    -2.1700     0.2990 ha         1 PEA       0.110500
     15 H21         -1.6160     0.8650     1.3430 hc         1 PEA       0.067700
     16 H22         -1.6210    -0.8910     1.3220 hc         1 PEA       0.067700
     17 H11         -2.0240    -0.8690    -1.1490 hx         1 PEA       0.108700
     18 H12         -2.0190     0.9050    -1.1280 hx         1 PEA       0.108700
     19 HN1         -4.3350     0.0230    -1.0240 hn         1 PEA       0.511333
     20 HN2         -4.0110     0.8280     0.3700 hn         1 PEA       0.511333
     21 HN3         -4.0160    -0.8170     0.3500 hn         1 PEA       0.511333
@<TRIPOS>BOND
     1     1     2 ar  
     2     1     6 ar  
     3     1     7 1   
     4     2     3 ar  
     5     2    10 1   
     6     3     4 ar  
     7     3    11 1   
     8     4     5 ar  
     9     4    12 1   
    10     5     6 ar  
    11     5    13 1   
    12     6    14 1   
    13     7     8 1   
    14     7    15 1   
    15     7    16 1   
    16     8     9 1   
    17     8    17 1   
    18     8    18 1   
    19     9    19 1   
    20     9    20 1   
    21     9    21 1   
@<TRIPOS>SUBSTRUCTURE
     1 PEA         1 TEMP              0 ****  ****    0 ROOT
