@<TRIPOS>MOLECULE
PEA
   21    21     1     0     0
SMALL
bcc


@<TRIPOS>ATOM
      1 C1           0.0910    -0.0590     0.4000 ca         1 PEA      -0.130300
      2 C6           0.7310     1.1520     0.1420 ca         1 PEA      -0.114000
      3 C5           2.0710     1.1830    -0.2170 ca         1 PEA      -0.113500
      4 C4           2.7920    -0.0010    -0.3210 ca         1 PEA      -0.093000
      5 C3           2.1640    -1.2120    -0.0640 ca         1 PEA      -0.113500
      6 C2           0.8210    -1.2390     0.2920 ca         1 PEA      -0.114000
      7 C8          -1.3730    -0.0870     0.7450 c3         1 PEA      -0.043100
      8 C7          -2.2040     0.0980    -0.5140 c3         1 PEA       0.125800
      9 N           -3.6590     0.0600    -0.2080 nz         1 PEA      -0.837600
     10 H6           0.1770     2.0810     0.2280 ha         1 PEA       0.128500
     11 H5           2.5540     2.1310    -0.4140 ha         1 PEA       0.150500
     12 H4           3.8380     0.0220    -0.5980 ha         1 PEA       0.153000
     13 H3           2.7190    -2.1380    -0.1410 ha         1 PEA       0.150500
     14 H2           0.3390    -2.1880     0.4930 ha         1 PEA       0.128500
     15 H21         -1.6080     0.7040     1.4610 hc         1 PEA       0.067700
     16 H22         -1.6280    -1.0380     1.2180 hc         1 PEA       0.067700
     17 H11         -2.0160    -0.6920    -1.2380 hx         1 PEA       0.108700
     18 H12         -2.0090     1.0580    -0.9850 hx         1 PEA       0.108700
     19 HN1         -4.2170     0.2160    -1.0470 hn         1 PEA       0.456133
     20 HN2         -3.9270     0.7760     0.4660 hn         1 PEA       0.456133
     21 HN3         -3.9450    -0.8400     0.1750 hn         1 PEA       0.456133
@<TRIPOS>BOND
     1     1     2 ar  
     2     1     6 ar  
     3     1     7 1   
     4     2     3 ar  
     5     2    10 1   
     6     3     4 ar  
     7     3    11 1   
     8     4     5 ar  
     9     4    12 1   
    10     5     6 ar  
    11     5    13 1   
    12     6    14 1   
    13     7     8 1   
    14     7    15 1   
    15     7    16 1   
    16     8     9 1   
    17     8    17 1   
    18     8    18 1   
    19     9    19 1   
    20     9    20 1   
    21     9    21 1   
@<TRIPOS>SUBSTRUCTURE
     1 PEA         1 TEMP              0 ****  ****    0 ROOT
