@<TRIPOS>MOLECULE
PEB
   81    84     1     0     0
SMALL
No Charge or Current Charge


@<TRIPOS>ATOM
      1 CHC         -0.8320     1.1350    -3.0530 c3         1 PEB      -0.016100
      2 NC          -0.7070     0.6110    -0.5550 na         1 PEB      -0.087000
      3 C1C         -1.5140     0.5550     0.5730 cc         1 PEB      -0.206800
      4 C2C         -2.7810     0.8720     0.1450 cd         1 PEB      -0.031300
      5 C3C         -2.7330     1.1290    -1.2540 cd         1 PEB      -0.165300
      6 C4C         -1.4380     0.9730    -1.6800 cc         1 PEB      -0.163300
      7 CMC         -3.9150     1.5140    -2.1130 c3         1 PEB      -0.009800
      8 CAC         -4.0240     0.9450     1.0040 c3         1 PEB      -0.013100
      9 CBC         -4.7630    -0.4120     1.0920 c3         1 PEB      -0.200400
     10 CGC         -6.0530    -0.2530     1.9130 c          1 PEB       0.719000
     11 O1C         -5.9890    -0.4080     3.1230 o          1 PEB      -0.739500
     12 O2C         -7.0740     0.0700     1.3260 o          1 PEB      -0.739500
     13 ND          -1.8350    -0.9280    -4.0550 ns         1 PEB      -0.500900
     14 C1D         -0.5850    -0.2100    -3.7750 c5         1 PEB       0.131900
     15 C2D         -0.0270    -0.0300    -5.2000 c2         1 PEB      -0.085400
     16 C3D         -0.9170    -0.5070    -6.0970 ce         1 PEB      -0.157200
     17 C4D         -2.0820    -1.0710    -5.3820 c          1 PEB       0.565200
     18 CMD          1.3150     0.6320    -5.4540 c3         1 PEB      -0.051900
     19 CAD         -0.7350    -0.4570    -7.5660 ce         1 PEB      -0.159000
     20 CBD         -1.5610    -0.9930    -8.4910 c2         1 PEB      -0.301000
     21 OD          -3.0930    -1.5810    -5.8380 o          1 PEB      -0.565000
     22 NA           3.6090     0.4970    -0.4160 ns         1 PEB      -0.400100
     23 C1A          4.3330     0.7630    -1.5320 c          1 PEB       0.562000
     24 C2A          5.6920     0.0620    -1.2730 c5         1 PEB      -0.155700
     25 C3A          5.7140    -0.2740     0.2750 c5         1 PEB      -0.028500
     26 C4A          4.2460    -0.1220     0.6340 c2         1 PEB       0.008400
     27 CAA          6.6210     0.6630     1.1150 c3         1 PEB      -0.068400
     28 NB           1.3860    -0.0400     1.4930 nd         1 PEB      -0.666300
     29 C1B          2.3650    -0.4650     2.2830 cc         1 PEB       0.472900
     30 C2B          1.9390    -0.8290     3.5960 cc         1 PEB      -0.291800
     31 C3B          0.5860    -0.6260     3.6330 cd         1 PEB      -0.006200
     32 C4B          0.2740    -0.1380     2.3190 cd         1 PEB      -0.001400
     33 CHB         -1.0020     0.1980     1.8980 ce         1 PEB       0.053800
     34 CGB         -1.5060     0.0940     6.8300 c          1 PEB       0.718000
     35 O1B         -2.7150     0.1770     6.6780 o          1 PEB      -0.738500
     36 O2B         -0.9780    -0.2780     7.8670 o          1 PEB      -0.738500
     37 HHC1        -1.4710     1.7740    -3.6730 hc         1 PEB       0.065200
     38 HHC2         0.1190     1.6740    -2.9600 hc         1 PEB       0.065200
     39 HNC          0.2880     0.4070    -0.5350 hn         1 PEB       0.369000
     40 HMC1        -4.8270     0.9950    -1.7960 hc         1 PEB       0.034033
     41 HMC2        -4.1040     2.5920    -2.0550 hc         1 PEB       0.034033
     42 HMC3        -3.7500     1.2590    -3.1660 hc         1 PEB       0.034033
     43 HAC1        -3.7670     1.2840     2.0150 hc         1 PEB       0.059200
     44 HAC2        -4.7090     1.7030     0.6050 hc         1 PEB       0.059200
     45 HBC1        -4.9990    -0.6940     0.0590 hc         1 PEB       0.018700
     46 HBC2        -4.0680    -1.1000     1.5900 hc         1 PEB       0.018700
     47 HND         -2.5330    -1.2120    -3.3790 hn         1 PEB       0.358500
     48 H1D1         0.0960    -0.8190    -3.1640 h1         1 PEB       0.071700
     49 HMD1         1.7930     0.2570    -6.3660 hc         1 PEB       0.050367
     50 HMD2         1.2050     1.7180    -5.5500 hc         1 PEB       0.050367
     51 HMD3         2.0080     0.4390    -4.6270 hc         1 PEB       0.050367
     52 HAD1         0.1530     0.0700    -7.9200 ha         1 PEB       0.155000
     53 HBD1        -1.3470    -0.9040    -9.5570 ha         1 PEB       0.170000
     54 HBD2        -2.4690    -1.5370    -8.2340 ha         1 PEB       0.170000
     55 HNA          2.6790     0.8810    -0.3110 hn         1 PEB       0.372500
     56 H2A1         6.4920     0.7360    -1.5970 hc         1 PEB       0.074700
     57 H3A1         6.0490    -1.3020     0.4610 hc         1 PEB       0.063700
     58 HBA1         8.7080     1.1620     1.5050 hc         1 PEB       0.028367
     59 HBA2         8.4500    -0.5310     1.0370 hc         1 PEB       0.028367
     60 HBA3         8.3810     0.7540    -0.1900 hc         1 PEB       0.028367
     61 HAA1         6.4480     0.4780     2.1830 hc         1 PEB       0.051200
     62 HAA2         6.3400     1.7090     0.9380 hc         1 PEB       0.051200
     63 HHB1        -1.7740     0.1160     2.6610 ha         1 PEB       0.229000
     64 HAB1        -1.3140    -1.2580     4.4350 hc         1 PEB       0.058200
     65 HAB2         0.0490    -1.6470     5.4480 hc         1 PEB       0.058200
     66 HBB1         0.3890     0.7400     5.9720 hc         1 PEB       0.021200
     67 HBB2        -1.0900     1.1270     4.9540 hc         1 PEB       0.021200
     68 CMB          2.8560    -1.3230     4.6890 c3         1 PEB      -0.009900
     69 CHA          3.7520    -0.5420     1.8190 ce         1 PEB      -0.287600
     70 CMA          5.8100    -1.1960    -2.1680 c3         1 PEB      -0.074100
     71 CBA          8.1320     0.5010     0.8470 c3         1 PEB      -0.090100
     72 HMA1         5.7460    -0.9320    -3.2310 hc         1 PEB       0.038367
     73 HMA2         6.7690    -1.7030    -2.0090 hc         1 PEB       0.038367
     74 HMA3         5.0100    -1.9150    -1.9530 hc         1 PEB       0.038367
     75 HHA1         4.4270    -1.0070     2.5320 ha         1 PEB       0.184000
     76 HMB1         3.2300    -2.3280     4.4590 hc         1 PEB       0.027033
     77 HMB2         3.7190    -0.6580     4.8070 hc         1 PEB       0.027033
     78 HMB3         2.3480    -1.3680     5.6590 hc         1 PEB       0.027033
     79 CAB         -0.3560    -0.8650     4.7950 c3         1 PEB      -0.022200
     80 OA           3.9920     1.5270    -2.4220 o          1 PEB      -0.559000
     81 CBB         -0.6010     0.4140     5.6290 c3         1 PEB      -0.201400
@<TRIPOS>BOND
     1     1     6 1   
     2     1    14 1   
     3     1    37 1   
     4     1    38 1   
     5     2     3 1   
     6     2     6 1   
     7     2    39 1   
     8     3     4 2   
     9     3    33 1   
    10     4     5 1   
    11     4     8 1   
    12     5     6 2   
    13     5     7 1   
    14     7    40 1   
    15     7    41 1   
    16     7    42 1   
    17     8     9 1   
    18     8    43 1   
    19     8    44 1   
    20     9    10 1   
    21     9    45 1   
    22     9    46 1   
    23    10    11 1   
    24    10    12 1   
    25    13    14 1   
    26    13    17 1   
    27    13    47 1   
    28    14    15 1   
    29    14    48 1   
    30    15    16 2   
    31    15    18 1   
    32    16    17 1   
    33    16    19 1   
    34    17    21 2   
    35    18    49 1   
    36    18    50 1   
    37    18    51 1   
    38    19    20 2   
    39    19    52 1   
    40    20    53 1   
    41    20    54 1   
    42    22    23 1   
    43    22    26 1   
    44    22    55 1   
    45    23    24 1   
    46    23    80 2   
    47    24    25 1   
    48    24    56 1   
    49    24    70 1   
    50    25    26 1   
    51    25    27 1   
    52    25    57 1   
    53    26    69 2   
    54    27    61 1   
    55    27    62 1   
    56    27    71 1   
    57    28    29 2   
    58    28    32 1   
    59    29    30 1   
    60    29    69 1   
    61    30    31 2   
    62    30    68 1   
    63    31    32 1   
    64    31    79 1   
    65    32    33 2   
    66    33    63 1   
    67    34    35 1   
    68    34    36 1   
    69    34    81 1   
    70    58    71 1   
    71    59    71 1   
    72    60    71 1   
    73    64    79 1   
    74    65    79 1   
    75    66    81 1   
    76    67    81 1   
    77    68    76 1   
    78    68    77 1   
    79    68    78 1   
    80    69    75 1   
    81    70    72 1   
    82    70    73 1   
    83    70    74 1   
    84    79    81 1   
@<TRIPOS>SUBSTRUCTURE
     1 PEB         1 TEMP              0 ****  ****    0 ROOT
