@<TRIPOS>MOLECULE
PEB
   81    84     1     0     0
SMALL
abcg2


@<TRIPOS>ATOM
      1 CHC         -0.5280     1.1200    -2.7730 c3         1 PEB      -0.016100
      2 NC          -0.6300     0.6240    -0.3550 na         1 PEB      -0.087000
      3 C1C         -1.5070     0.5740     0.6960 cc         1 PEB      -0.206800
      4 C2C         -2.7560     0.9630     0.2040 cd         1 PEB      -0.031300
      5 C3C         -2.5910     1.2460    -1.1700 cd         1 PEB      -0.165300
      6 C4C         -1.2540     1.0280    -1.4780 cc         1 PEB      -0.163300
      7 CMC         -3.6580     1.6790    -2.1210 c3         1 PEB      -0.009800
      8 CAC         -4.0420     1.0100     0.9620 c3         1 PEB      -0.013100
      9 CBC         -4.8750    -0.2510     0.7430 c3         1 PEB      -0.200400
     10 CGC         -6.2510    -0.2650     1.4320 c          1 PEB       0.719000
     11 O1C         -6.5690     0.7250     2.1190 o          1 PEB      -0.739500
     12 O2C         -6.9410    -1.2890     1.2420 o          1 PEB      -0.739500
     13 ND          -1.6680    -0.8480    -3.7370 ns         1 PEB      -0.500900
     14 C1D         -0.3930    -0.2540    -3.4550 c5         1 PEB       0.131900
     15 C2D          0.2290    -0.1700    -4.8180 c2         1 PEB      -0.085400
     16 C3D         -0.6250    -0.6470    -5.7450 ce         1 PEB      -0.157200
     17 C4D         -1.8630    -1.0990    -5.0500 c          1 PEB       0.565200
     18 CMD          1.5960     0.3800    -4.9920 c3         1 PEB      -0.051900
     19 CAD         -0.3920    -0.7220    -7.1770 ce         1 PEB      -0.159000
     20 CBD         -1.2140    -1.2210    -8.1020 c2         1 PEB      -0.301000
     21 OD          -2.8610    -1.6030    -5.5400 o          1 PEB      -0.565000
     22 NA           3.2470     0.6370    -0.2310 ns         1 PEB      -0.400100
     23 C1A          3.8530     1.0890    -1.3630 c          1 PEB       0.562000
     24 C2A          5.2680     0.5510    -1.3720 c5         1 PEB      -0.155700
     25 C3A          5.3820    -0.2870    -0.0830 c5         1 PEB      -0.028500
     26 C4A          4.0260    -0.1560     0.5670 c2         1 PEB       0.008400
     27 CAA          6.5240     0.1410     0.8390 c3         1 PEB      -0.068400
     28 NB           1.2560    -0.0980     1.5570 nd         1 PEB      -0.666300
     29 C1B          2.2700    -0.5830     2.2470 cc         1 PEB       0.472900
     30 C2B          1.8690    -0.9790     3.5870 cc         1 PEB      -0.291800
     31 C3B          0.5400    -0.6950     3.6850 cd         1 PEB      -0.006200
     32 C4B          0.1520    -0.1590     2.3920 cd         1 PEB      -0.001400
     33 CHB         -1.1120     0.1720     1.9960 ce         1 PEB       0.053800
     34 CGB         -1.3660     0.3810     6.9130 c          1 PEB       0.718000
     35 O1B         -2.0480    -0.6490     7.0770 o          1 PEB      -0.738500
     36 O2B         -1.3280     1.3720     7.6720 o          1 PEB      -0.738500
     37 HHC1        -1.0520     1.7990    -3.4490 hc         1 PEB       0.065200
     38 HHC2         0.4720     1.5340    -2.6120 hc         1 PEB       0.065200
     39 HNC          0.3330     0.3410    -0.2390 hn         1 PEB       0.369000
     40 HMC1        -4.1930     0.8310    -2.5530 hc         1 PEB       0.034033
     41 HMC2        -4.4000     2.3070    -1.6270 hc         1 PEB       0.034033
     42 HMC3        -3.2510     2.2550    -2.9540 hc         1 PEB       0.034033
     43 HAC1        -3.8530     1.1450     2.0290 hc         1 PEB       0.059200
     44 HAC2        -4.6180     1.8840     0.6500 hc         1 PEB       0.059200
     45 HBC1        -5.0250    -0.4120    -0.3310 hc         1 PEB       0.018700
     46 HBC2        -4.3090    -1.1240     1.0850 hc         1 PEB       0.018700
     47 HND         -2.3390    -1.0870    -3.0250 hn         1 PEB       0.358500
     48 H1D1         0.2100    -0.9100    -2.8160 h1         1 PEB       0.071700
     49 HMD1         1.9460     0.3030    -6.0190 hc         1 PEB       0.050367
     50 HMD2         1.6370     1.4310    -4.7030 hc         1 PEB       0.050367
     51 HMD3         2.3070    -0.1450    -4.3520 hc         1 PEB       0.050367
     52 HAD1         0.5580    -0.3190    -7.5110 ha         1 PEB       0.155000
     53 HBD1        -0.9220    -1.2160    -9.1430 ha         1 PEB       0.170000
     54 HBD2        -2.1800    -1.6410    -7.8630 ha         1 PEB       0.170000
     55 HNA          2.3040     0.8720     0.0590 hn         1 PEB       0.372500
     56 H2A1         5.9360     1.4180    -1.3270 hc         1 PEB       0.074700
     57 H3A1         5.5350    -1.3410    -0.3410 hc         1 PEB       0.063700
     58 HBA1         8.6840     0.2420     0.8930 hc         1 PEB       0.028367
     59 HBA2         8.0600    -1.0670    -0.1070 hc         1 PEB       0.028367
     60 HBA3         8.0090     0.5960    -0.6900 hc         1 PEB       0.028367
     61 HAA1         6.4810    -0.4540     1.7550 hc         1 PEB       0.051200
     62 HAA2         6.3780     1.1830     1.1370 hc         1 PEB       0.051200
     63 HHB1        -1.9040     0.1030     2.7330 ha         1 PEB       0.229000
     64 HAB1        -1.3410    -1.1930     4.5650 hc         1 PEB       0.058200
     65 HAB2         0.0450    -1.6150     5.5320 hc         1 PEB       0.058200
     66 HBB1         0.4970     0.8400     5.9240 hc         1 PEB       0.021200
     67 HBB2        -0.9170     1.2380     4.9940 hc         1 PEB       0.021200
     68 CMB          2.7830    -1.5580     4.6130 c3         1 PEB      -0.009900
     69 CHA          3.6080    -0.7040     1.7270 ce         1 PEB      -0.287600
     70 CMA          5.5590    -0.2200    -2.6540 c3         1 PEB      -0.074100
     71 CBA          7.8920    -0.0320     0.1950 c3         1 PEB      -0.090100
     72 HMA1         5.4690     0.4240    -3.5280 hc         1 PEB       0.038367
     73 HMA2         6.5730    -0.6180    -2.6320 hc         1 PEB       0.038367
     74 HMA3         4.8720    -1.0590    -2.7730 hc         1 PEB       0.038367
     75 HHA1         4.3230    -1.2780     2.3020 ha         1 PEB       0.184000
     76 HMB1         3.2630    -2.4730     4.2560 hc         1 PEB       0.027033
     77 HMB2         3.5830    -0.8640     4.8810 hc         1 PEB       0.027033
     78 HMB3         2.2460    -1.8060     5.5280 hc         1 PEB       0.027033
     79 CAB         -0.3530    -0.8420     4.8710 c3         1 PEB      -0.022200
     80 OA           3.3230     1.7890    -2.1990 o          1 PEB      -0.559000
     81 CBB         -0.4940     0.4660     5.6470 c3         1 PEB      -0.201400
@<TRIPOS>BOND
     1     1     6 1   
     2     1    14 1   
     3     1    37 1   
     4     1    38 1   
     5     2     3 1   
     6     2     6 1   
     7     2    39 1   
     8     3     4 2   
     9     3    33 1   
    10     4     5 1   
    11     4     8 1   
    12     5     6 2   
    13     5     7 1   
    14     7    40 1   
    15     7    41 1   
    16     7    42 1   
    17     8     9 1   
    18     8    43 1   
    19     8    44 1   
    20     9    10 1   
    21     9    45 1   
    22     9    46 1   
    23    10    11 1   
    24    10    12 1   
    25    13    14 1   
    26    13    17 1   
    27    13    47 1   
    28    14    15 1   
    29    14    48 1   
    30    15    16 2   
    31    15    18 1   
    32    16    17 1   
    33    16    19 1   
    34    17    21 2   
    35    18    49 1   
    36    18    50 1   
    37    18    51 1   
    38    19    20 2   
    39    19    52 1   
    40    20    53 1   
    41    20    54 1   
    42    22    23 1   
    43    22    26 1   
    44    22    55 1   
    45    23    24 1   
    46    23    80 2   
    47    24    25 1   
    48    24    56 1   
    49    24    70 1   
    50    25    26 1   
    51    25    27 1   
    52    25    57 1   
    53    26    69 2   
    54    27    61 1   
    55    27    62 1   
    56    27    71 1   
    57    28    29 2   
    58    28    32 1   
    59    29    30 1   
    60    29    69 1   
    61    30    31 2   
    62    30    68 1   
    63    31    32 1   
    64    31    79 1   
    65    32    33 2   
    66    33    63 1   
    67    34    35 1   
    68    34    36 1   
    69    34    81 1   
    70    58    71 1   
    71    59    71 1   
    72    60    71 1   
    73    64    79 1   
    74    65    79 1   
    75    66    81 1   
    76    67    81 1   
    77    68    76 1   
    78    68    77 1   
    79    68    78 1   
    80    69    75 1   
    81    70    72 1   
    82    70    73 1   
    83    70    74 1   
    84    79    81 1   
@<TRIPOS>SUBSTRUCTURE
     1 PEB         1 TEMP              0 ****  ****    0 ROOT
