@<TRIPOS>MOLECULE
PEC
   29    28     1     0     0
SMALL
bcc


@<TRIPOS>ATOM
      1 N           12.4290    20.2150    16.9920 n8         1 PEC      -0.874800
      2 CA          13.6680    20.3700    16.2570 c3         1 PEC       0.016500
      3 CB          13.5090    20.8820    14.8240 c3         1 PEC       0.011700
      4 SG          12.8510    22.5810    14.7170 ss         1 PEC      -0.165100
      5 SD          10.8120    22.3230    14.7590 ss         1 PEC      -0.252100
      6 C1          10.3290    22.2700    12.9970 c3         1 PEC       0.005700
      7 C2           9.9180    23.6160    12.4220 c3         1 PEC      -0.059400
      8 C3          11.0280    24.6540    12.3510 c3         1 PEC      -0.083400
      9 C4          10.5590    25.9660    11.7350 c3         1 PEC      -0.071400
     10 C5          11.6630    27.0120    11.6600 c3         1 PEC      -0.088100
     11 C           14.6820    21.2660    17.0180 c          1 PEC       0.937600
     12 O           14.2820    21.8430    18.0450 o          1 PEC      -0.825800
     13 OXT         15.8180    21.3350    16.5080 o          1 PEC      -0.825800
     14 H           12.1230    21.1220    17.3210 hn         1 PEC       0.329300
     15 H2          11.7000    19.8610    16.3850 hn         1 PEC       0.329300
     16 HA          14.1320    19.3800    16.1550 h1         1 PEC       0.049700
     17 HB2         14.4790    20.9210    14.3260 h1         1 PEC       0.060700
     18 HB3         12.8620    20.2360    14.2280 h1         1 PEC       0.060700
     19 H11         11.1480    21.8180    12.4370 h1         1 PEC       0.060200
     20 H12          9.4880    21.5740    12.9580 h1         1 PEC       0.060200
     21 H21          9.5290    23.4350    11.4150 hc         1 PEC       0.033700
     22 H22          9.0810    24.0110    13.0040 hc         1 PEC       0.033700
     23 H31         11.4160    24.8490    13.3560 hc         1 PEC       0.055200
     24 H32         11.8680    24.2570    11.7710 hc         1 PEC       0.055200
     25 H41         10.1670    25.7770    10.7310 hc         1 PEC       0.028200
     26 H42          9.7210    26.3580    12.3190 hc         1 PEC       0.028200
     27 H51         11.3050    27.9420    11.2170 hc         1 PEC       0.030367
     28 H52         12.0520    27.2470    12.6520 hc         1 PEC       0.030367
     29 H53         12.5000    26.6590    11.0550 hc         1 PEC       0.030367
@<TRIPOS>BOND
     1     1     2 1   
     2     1    14 1   
     3     1    15 1   
     4     2     3 1   
     5     2    11 1   
     6     2    16 1   
     7     3     4 1   
     8     3    17 1   
     9     3    18 1   
    10     4     5 1   
    11     5     6 1   
    12     6     7 1   
    13     6    19 1   
    14     6    20 1   
    15     7     8 1   
    16     7    21 1   
    17     7    22 1   
    18     8     9 1   
    19     8    23 1   
    20     8    24 1   
    21     9    10 1   
    22     9    25 1   
    23     9    26 1   
    24    10    27 1   
    25    10    28 1   
    26    10    29 1   
    27    11    12 1   
    28    11    13 1   
@<TRIPOS>SUBSTRUCTURE
     1 PEC         1 TEMP              0 ****  ****    0 ROOT
