@<TRIPOS>MOLECULE
PEC
   29    28     1     0     0
SMALL
No Charge or Current Charge


@<TRIPOS>ATOM
      1 N           12.3610    20.0020    16.6450 n8         1 PEC      -0.874800
      2 CA          13.7270    20.4300    16.1540 c3         1 PEC       0.016500
      3 CB          13.6280    21.1190    14.7670 c3         1 PEC       0.011700
      4 SG          12.8330    22.7920    14.8300 ss         1 PEC      -0.165100
      5 SD          10.7770    22.4060    14.9790 ss         1 PEC      -0.252100
      6 C1          10.2060    22.2790    13.2240 c3         1 PEC       0.005700
      7 C2           9.8220    23.6480    12.6180 c3         1 PEC      -0.059400
      8 C3          10.9990    24.6330    12.4370 c3         1 PEC      -0.083400
      9 C4          10.5950    25.9300    11.7020 c3         1 PEC      -0.071400
     10 C5          11.7660    26.9160    11.5290 c3         1 PEC      -0.088100
     11 C           14.6490    21.2830    17.1300 c          1 PEC       0.937600
     12 O           14.1370    21.9100    18.0550 o          1 PEC      -0.825800
     13 OXT         15.8670    21.1950    16.9980 o          1 PEC      -0.825800
     14 H           11.8020    20.8490    16.7970 hn         1 PEC       0.329300
     15 H2          11.8670    19.5130    15.8920 hn         1 PEC       0.329300
     16 HA          14.2830    19.4970    15.9910 h1         1 PEC       0.049700
     17 HB2         14.6430    21.2480    14.3690 h1         1 PEC       0.060700
     18 HB3         13.0740    20.4850    14.0630 h1         1 PEC       0.060700
     19 H11         10.9860    21.7970    12.6210 h1         1 PEC       0.060200
     20 H12          9.3190    21.6320    13.2070 h1         1 PEC       0.060200
     21 H21          9.3640    23.4670    11.6380 hc         1 PEC       0.033700
     22 H22          9.0500    24.1140    13.2430 hc         1 PEC       0.033700
     23 H31         11.4030    24.9010    13.4200 hc         1 PEC       0.055200
     24 H32         11.8040    24.1380    11.8800 hc         1 PEC       0.055200
     25 H41         10.1930    25.6780    10.7130 hc         1 PEC       0.028200
     26 H42          9.7890    26.4260    12.2580 hc         1 PEC       0.028200
     27 H51         11.4310    27.8180    11.0040 hc         1 PEC       0.030367
     28 H52         12.1670    27.2160    12.5050 hc         1 PEC       0.030367
     29 H53         12.5750    26.4590    10.9470 hc         1 PEC       0.030367
@<TRIPOS>BOND
     1     1     2 1   
     2     1    14 1   
     3     1    15 1   
     4     2     3 1   
     5     2    11 1   
     6     2    16 1   
     7     3     4 1   
     8     3    17 1   
     9     3    18 1   
    10     4     5 1   
    11     5     6 1   
    12     6     7 1   
    13     6    19 1   
    14     6    20 1   
    15     7     8 1   
    16     7    21 1   
    17     7    22 1   
    18     8     9 1   
    19     8    23 1   
    20     8    24 1   
    21     9    10 1   
    22     9    25 1   
    23     9    26 1   
    24    10    27 1   
    25    10    28 1   
    26    10    29 1   
    27    11    12 1   
    28    11    13 1   
@<TRIPOS>SUBSTRUCTURE
     1 PEC         1 TEMP              0 ****  ****    0 ROOT
