@<TRIPOS>MOLECULE
PEE
  133   132     1     0     0
SMALL
No Charge or Current Charge


@<TRIPOS>ATOM
      1 C2          -0.7820     6.5150    -1.1230 c3         1 PEE       0.149300
      2 C1           0.1580     7.3890    -0.2390 c3         1 PEE       0.210600
      3 N            0.6120     4.0000     1.2910 nz         1 PEE      -0.964000
      4 C3          -0.1220     5.7580    -2.3040 c3         1 PEE       0.173600
      5 C4           3.1320     4.0780     0.9120 c3         1 PEE       0.190600
      6 C5           1.9740     4.1160     1.9420 c3         1 PEE       0.095600
      7 C11         -3.2200     4.8620     1.2280 c3         1 PEE      -0.136400
      8 C12         -4.3860     4.2650     0.4040 c3         1 PEE      -0.070400
      9 C13         -5.0870     3.0880     1.1150 c3         1 PEE      -0.074400
     10 C14         -6.2500     2.4910     0.2940 c3         1 PEE      -0.076400
     11 C15         -6.9500     1.3130     1.0060 c3         1 PEE      -0.073400
     12 C16         -8.1140     0.7150     0.1870 c3         1 PEE      -0.075400
     13 C17         -8.8120    -0.4630     0.9000 c3         1 PEE      -0.073400
     14 C18         -9.9800    -1.0600     0.0830 c3         1 PEE      -0.075400
     15 C19        -10.6760    -2.2390     0.7980 c3         1 PEE      -0.073400
     16 C20        -11.8460    -2.8340    -0.0170 c3         1 PEE      -0.074400
     17 C21        -12.5400    -4.0140     0.6970 c3         1 PEE      -0.073400
     18 C22        -13.7110    -4.6090    -0.1160 c3         1 PEE      -0.074400
     19 C23        -14.4040    -5.7900     0.5970 c3         1 PEE      -0.074400
     20 C24        -15.5740    -6.3850    -0.2160 c3         1 PEE      -0.074400
     21 C25        -16.2650    -7.5690     0.4960 c3         1 PEE      -0.075400
     22 C26        -17.4350    -8.1640    -0.3180 c3         1 PEE      -0.075400
     23 C27        -18.1230    -9.3460     0.3920 c3         1 PEE      -0.088100
     24 C30          1.0700     3.7340    -2.8060 c          1 PEE       0.629100
     25 C31          1.6030     2.4220    -2.2170 c3         1 PEE      -0.117400
     26 C32          3.1340     2.2840    -2.4040 c3         1 PEE      -0.083400
     27 C33          3.7050     0.9990    -1.7660 c3         1 PEE      -0.061400
     28 C34          5.2370     0.8790    -1.9130 c3         1 PEE      -0.083400
     29 C35          5.8070    -0.4030    -1.2680 c3         1 PEE      -0.070400
     30 C36          7.3400    -0.5210    -1.4080 c3         1 PEE      -0.077400
     31 C37          7.9080    -1.8020    -0.7600 c3         1 PEE      -0.071400
     32 C38          9.4420    -1.9210    -0.8970 c3         1 PEE      -0.076400
     33 C39         10.0080    -3.2020    -0.2450 c3         1 PEE      -0.072400
     34 C40         11.5420    -3.3210    -0.3790 c3         1 PEE      -0.075400
     35 C41         12.1070    -4.6010     0.2740 c3         1 PEE      -0.072400
     36 C42         13.6420    -4.7190     0.1430 c3         1 PEE      -0.075400
     37 C43         14.2070    -6.0000     0.7970 c3         1 PEE      -0.073400
     38 C44         15.7410    -6.1170     0.6700 c3         1 PEE      -0.075400
     39 C45         16.3060    -7.3970     1.3240 c3         1 PEE      -0.075400
     40 C46         17.8410    -7.5130     1.2010 c3         1 PEE      -0.075400
     41 C47         18.4040    -8.7900     1.8540 c3         1 PEE      -0.088100
     42 O4          -2.9460     7.1660     0.5070 o          1 PEE      -0.497000
     43 O5           0.9880     3.9380    -4.0100 o          1 PEE      -0.485000
     44 O2          -1.5090     5.5630    -0.3020 os         1 PEE      -0.430100
     45 O3           0.5070     4.5410    -1.8490 os         1 PEE      -0.428100
     46 O1P          2.9140     7.2690    -1.2800 o          1 PEE      -0.802500
     47 O2P          3.5800     7.0850     1.0940 o          1 PEE      -0.802500
     48 O3P          1.1390     6.5950     0.4550 os         1 PEE      -0.580400
     49 O4P          2.8640     4.9760    -0.1850 os         1 PEE      -0.596400
     50 P            2.6930     6.5660     0.0150 p5         1 PEE       1.375800
     51 H1          -1.4930     7.2090    -1.5920 h1         1 PEE       0.066700
     52 H2           0.6300     8.1510    -0.8720 h1         1 PEE       0.046200
     53 H3          -0.4480     7.9370     0.4930 h1         1 PEE       0.046200
     54 H4           0.4670     4.7770     0.6160 hn         1 PEE       0.507667
     55 H5           0.4810     3.1290     0.7590 hn         1 PEE       0.507667
     56 H6          -0.1610     4.0530     1.9690 hn         1 PEE       0.507667
     57 H7          -0.9060     5.5240    -3.0360 h1         1 PEE       0.061700
     58 H8           0.6070     6.4150    -2.7970 h1         1 PEE       0.061700
     59 H9           4.0730     4.3410     1.4140 h1         1 PEE       0.068700
     60 H10          3.2360     3.0520     0.5390 h1         1 PEE       0.068700
     61 H11          2.0180     5.0660     2.4830 hx         1 PEE       0.092700
     62 H12          2.1050     3.3030     2.6630 hx         1 PEE       0.092700
     63 H13         -2.4920     4.0590     1.3900 hc         1 PEE       0.066700
     64 H14         -3.6090     5.2320     2.1840 hc         1 PEE       0.066700
     65 H15         -5.1220     5.0530     0.1980 hc         1 PEE       0.054700
     66 H16         -4.0030     3.9240    -0.5670 hc         1 PEE       0.054700
     67 H17         -4.3500     2.3010     1.3210 hc         1 PEE       0.034700
     68 H18         -5.4690     3.4290     2.0850 hc         1 PEE       0.034700
     69 H19         -6.9870     3.2770     0.0890 hc         1 PEE       0.040200
     70 H20         -5.8680     2.1490    -0.6760 hc         1 PEE       0.040200
     71 H21         -6.2120     0.5260     1.2100 hc         1 PEE       0.035700
     72 H22         -7.3310     1.6540     1.9770 hc         1 PEE       0.035700
     73 H23         -8.8520     1.5010    -0.0170 hc         1 PEE       0.038700
     74 H24         -7.7330     0.3730    -0.7840 hc         1 PEE       0.038700
     75 H25         -8.0750    -1.2500     1.1020 hc         1 PEE       0.036700
     76 H26         -9.1910    -0.1220     1.8720 hc         1 PEE       0.036700
     77 H27        -10.7180    -0.2730    -0.1170 hc         1 PEE       0.037700
     78 H28         -9.6020    -1.4000    -0.8890 hc         1 PEE       0.037700
     79 H29         -9.9380    -3.0260     0.9960 hc         1 PEE       0.036700
     80 H30        -11.0520    -1.8990     1.7710 hc         1 PEE       0.036700
     81 H31        -12.5850    -2.0470    -0.2140 hc         1 PEE       0.037700
     82 H32        -11.4710    -3.1730    -0.9910 hc         1 PEE       0.037700
     83 H33        -11.8020    -4.8020     0.8930 hc         1 PEE       0.036700
     84 H34        -12.9140    -3.6760     1.6710 hc         1 PEE       0.036700
     85 H35        -14.4500    -3.8220    -0.3110 hc         1 PEE       0.037700
     86 H36        -13.3370    -4.9460    -1.0910 hc         1 PEE       0.037700
     87 H37        -13.6640    -6.5770     0.7920 hc         1 PEE       0.036700
     88 H38        -14.7770    -5.4530     1.5720 hc         1 PEE       0.036700
     89 H39        -16.3150    -5.5990    -0.4090 hc         1 PEE       0.036700
     90 H40        -15.2010    -6.7210    -1.1920 hc         1 PEE       0.036700
     91 H41        -15.5240    -8.3550     0.6900 hc         1 PEE       0.036700
     92 H42        -16.6390    -7.2330     1.4720 hc         1 PEE       0.036700
     93 H43        -18.1790    -7.3820    -0.5110 hc         1 PEE       0.036700
     94 H44        -17.0640    -8.5020    -1.2930 hc         1 PEE       0.036700
     95 H45        -17.4110   -10.1610     0.5690 hc         1 PEE       0.031367
     96 H46        -18.5370    -9.0310     1.3580 hc         1 PEE       0.031367
     97 H47        -18.9440    -9.7350    -0.2220 hc         1 PEE       0.031367
     98 H48          1.3780     2.3800    -1.1450 hc         1 PEE       0.044200
     99 H49          1.1150     1.5840    -2.7280 hc         1 PEE       0.044200
    100 H50          3.3690     2.2890    -3.4760 hc         1 PEE       0.077200
    101 H51          3.6350     3.1580    -1.9700 hc         1 PEE       0.077200
    102 H52          3.4450     0.9770    -0.7000 hc         1 PEE       0.004700
    103 H53          3.2280     0.1260    -2.2290 hc         1 PEE       0.004700
    104 H54          5.4990     0.8940    -2.9790 hc         1 PEE       0.052200
    105 H55          5.7120     1.7550    -1.4540 hc         1 PEE       0.052200
    106 H56          5.5410    -0.4180    -0.2030 hc         1 PEE       0.026200
    107 H57          5.3340    -1.2790    -1.7290 hc         1 PEE       0.026200
    108 H58          7.6060    -0.5070    -2.4730 hc         1 PEE       0.043200
    109 H59          7.8130     0.3560    -0.9480 hc         1 PEE       0.043200
    110 H60          7.6390    -1.8170     0.3040 hc         1 PEE       0.034200
    111 H61          7.4360    -2.6790    -1.2210 hc         1 PEE       0.034200
    112 H62          9.7110    -1.9080    -1.9600 hc         1 PEE       0.039700
    113 H63          9.9130    -1.0440    -0.4360 hc         1 PEE       0.039700
    114 H64          9.7370    -3.2150     0.8180 hc         1 PEE       0.036200
    115 H65          9.5370    -4.0790    -0.7070 hc         1 PEE       0.036200
    116 H66         11.8130    -3.3090    -1.4420 hc         1 PEE       0.038200
    117 H67         12.0130    -2.4440     0.0820 hc         1 PEE       0.038200
    118 H68         11.8340    -4.6140     1.3360 hc         1 PEE       0.036700
    119 H69         11.6380    -5.4790    -0.1890 hc         1 PEE       0.036700
    120 H70         13.9150    -4.7070    -0.9190 hc         1 PEE       0.037700
    121 H71         14.1110    -3.8420     0.6060 hc         1 PEE       0.037700
    122 H72         13.9310    -6.0130     1.8590 hc         1 PEE       0.036700
    123 H73         13.7390    -6.8770     0.3330 hc         1 PEE       0.036700
    124 H74         16.0170    -6.1030    -0.3920 hc         1 PEE       0.037200
    125 H75         16.2090    -5.2390     1.1340 hc         1 PEE       0.037200
    126 H76         16.0280    -7.4120     2.3850 hc         1 PEE       0.036700
    127 H77         15.8400    -8.2750     0.8580 hc         1 PEE       0.036700
    128 H78         18.1230    -7.5010     0.1410 hc         1 PEE       0.036700
    129 H79         18.3100    -6.6380     1.6670 hc         1 PEE       0.036700
    130 H80         18.1680    -8.8150     2.9250 hc         1 PEE       0.031700
    131 H81         17.9790    -9.6860     1.3840 hc         1 PEE       0.031700
    132 H82         19.4940    -8.8280     1.7420 hc         1 PEE       0.031700
    133 C10         -2.5430     6.0110     0.4810 c          1 PEE       0.594100
@<TRIPOS>BOND
     1     1     2 1   
     2     1     4 1   
     3     1    44 1   
     4     1    51 1   
     5     2    48 1   
     6     2    52 1   
     7     2    53 1   
     8     3     6 1   
     9     3    54 1   
    10     3    55 1   
    11     3    56 1   
    12     4    45 1   
    13     4    57 1   
    14     4    58 1   
    15     5     6 1   
    16     5    49 1   
    17     5    59 1   
    18     5    60 1   
    19     6    61 1   
    20     6    62 1   
    21     7     8 1   
    22     7    63 1   
    23     7    64 1   
    24     7   133 1   
    25     8     9 1   
    26     8    65 1   
    27     8    66 1   
    28     9    10 1   
    29     9    67 1   
    30     9    68 1   
    31    10    11 1   
    32    10    69 1   
    33    10    70 1   
    34    11    12 1   
    35    11    71 1   
    36    11    72 1   
    37    12    13 1   
    38    12    73 1   
    39    12    74 1   
    40    13    14 1   
    41    13    75 1   
    42    13    76 1   
    43    14    15 1   
    44    14    77 1   
    45    14    78 1   
    46    15    16 1   
    47    15    79 1   
    48    15    80 1   
    49    16    17 1   
    50    16    81 1   
    51    16    82 1   
    52    17    18 1   
    53    17    83 1   
    54    17    84 1   
    55    18    19 1   
    56    18    85 1   
    57    18    86 1   
    58    19    20 1   
    59    19    87 1   
    60    19    88 1   
    61    20    21 1   
    62    20    89 1   
    63    20    90 1   
    64    21    22 1   
    65    21    91 1   
    66    21    92 1   
    67    22    23 1   
    68    22    93 1   
    69    22    94 1   
    70    23    95 1   
    71    23    96 1   
    72    23    97 1   
    73    24    25 1   
    74    24    43 2   
    75    24    45 1   
    76    25    26 1   
    77    25    98 1   
    78    25    99 1   
    79    26    27 1   
    80    26   100 1   
    81    26   101 1   
    82    27    28 1   
    83    27   102 1   
    84    27   103 1   
    85    28    29 1   
    86    28   104 1   
    87    28   105 1   
    88    29    30 1   
    89    29   106 1   
    90    29   107 1   
    91    30    31 1   
    92    30   108 1   
    93    30   109 1   
    94    31    32 1   
    95    31   110 1   
    96    31   111 1   
    97    32    33 1   
    98    32   112 1   
    99    32   113 1   
   100    33    34 1   
   101    33   114 1   
   102    33   115 1   
   103    34    35 1   
   104    34   116 1   
   105    34   117 1   
   106    35    36 1   
   107    35   118 1   
   108    35   119 1   
   109    36    37 1   
   110    36   120 1   
   111    36   121 1   
   112    37    38 1   
   113    37   122 1   
   114    37   123 1   
   115    38    39 1   
   116    38   124 1   
   117    38   125 1   
   118    39    40 1   
   119    39   126 1   
   120    39   127 1   
   121    40    41 1   
   122    40   128 1   
   123    40   129 1   
   124    41   130 1   
   125    41   131 1   
   126    41   132 1   
   127    42   133 2   
   128    44   133 1   
   129    46    50 1   
   130    47    50 1   
   131    48    50 1   
   132    49    50 1   
@<TRIPOS>SUBSTRUCTURE
     1 PEE         1 TEMP              0 ****  ****    0 ROOT
