@<TRIPOS>MOLECULE
PEE
  133   132     1     0     0
SMALL
bcc


@<TRIPOS>ATOM
      1 C2          -0.9760     4.5810    -1.7460 c3         1 PEE       0.126100
      2 C1          -0.4020     5.5000    -0.6810 c3         1 PEE       0.187400
      3 N            3.1380     1.7900     2.7720 nz         1 PEE      -0.826600
      4 C3           0.0410     3.9290    -2.6540 c3         1 PEE       0.150400
      5 C4           3.7160     3.9870     1.8070 c3         1 PEE       0.167400
      6 C5           3.7950     3.1000     3.0240 c3         1 PEE       0.123800
      7 C11         -3.7360     2.5390    -0.3660 c3         1 PEE      -0.136400
      8 C12         -5.2500     2.5980    -0.4980 c3         1 PEE      -0.070400
      9 C13         -5.9260     1.3180    -0.0220 c3         1 PEE      -0.074400
     10 C14         -7.4370     1.3620    -0.2130 c3         1 PEE      -0.076400
     11 C15         -8.1470     0.0770     0.1930 c3         1 PEE      -0.073400
     12 C16         -9.6500     0.1360    -0.0510 c3         1 PEE      -0.075400
     13 C17        -10.3820    -1.1520     0.3050 c3         1 PEE      -0.073400
     14 C18        -11.8790    -1.0760     0.0300 c3         1 PEE      -0.075400
     15 C19        -12.6270    -2.3620     0.3570 c3         1 PEE      -0.073400
     16 C20        -14.1200    -2.2740     0.0670 c3         1 PEE      -0.074400
     17 C21        -14.8770    -3.5580     0.3800 c3         1 PEE      -0.073400
     18 C22        -16.3680    -3.4620     0.0810 c3         1 PEE      -0.074400
     19 C23        -17.1320    -4.7430     0.3890 c3         1 PEE      -0.074400
     20 C24        -18.6220    -4.6420     0.0860 c3         1 PEE      -0.074400
     21 C25        -19.3880    -5.9220     0.3940 c3         1 PEE      -0.075400
     22 C26        -20.8780    -5.8210     0.0890 c3         1 PEE      -0.075400
     23 C27        -21.6350    -7.1040     0.4020 c3         1 PEE      -0.088100
     24 C30          2.0230     2.6910    -2.3740 c          1 PEE       0.678100
     25 C31          2.7780     1.8060    -1.4200 c3         1 PEE      -0.117400
     26 C32          4.2770     1.8180    -1.6760 c3         1 PEE      -0.083400
     27 C33          5.0550     0.9250    -0.7170 c3         1 PEE      -0.061400
     28 C34          6.5100     0.7660    -1.1370 c3         1 PEE      -0.083400
     29 C35          7.3500    -0.0730    -0.1830 c3         1 PEE      -0.070400
     30 C36          8.7520    -0.3300    -0.7240 c3         1 PEE      -0.077400
     31 C37          9.6350    -1.1660     0.1930 c3         1 PEE      -0.071400
     32 C38         10.9980    -1.4560    -0.4240 c3         1 PEE      -0.076400
     33 C39         11.9130    -2.3030     0.4510 c3         1 PEE      -0.072400
     34 C40         13.2450    -2.6080    -0.2230 c3         1 PEE      -0.075400
     35 C41         14.1850    -3.4620     0.6170 c3         1 PEE      -0.072400
     36 C42         15.4950    -3.7710    -0.0980 c3         1 PEE      -0.075400
     37 C43         16.4530    -4.6280     0.7190 c3         1 PEE      -0.073400
     38 C44         17.7520    -4.9360    -0.0170 c3         1 PEE      -0.075400
     39 C45         18.7190    -5.7930     0.7880 c3         1 PEE      -0.075400
     40 C46         20.0150    -6.0980     0.0470 c3         1 PEE      -0.075400
     41 C47         20.9740    -6.9550     0.8610 c3         1 PEE      -0.088100
     42 O4          -3.5870     4.8260    -1.0990 o          1 PEE      -0.546000
     43 O5           2.4300     3.0410    -3.4540 o          1 PEE      -0.534000
     44 O2          -1.7640     3.5330    -1.1680 os         1 PEE      -0.406900
     45 O3           0.8150     2.9930    -1.9170 os         1 PEE      -0.404900
     46 O1P          2.7480     5.0400    -0.9240 o          1 PEE      -0.802500
     47 O2P          2.0690     6.6520     0.9800 o          1 PEE      -0.802500
     48 O3P          0.4330     4.8200     0.2310 os         1 PEE      -0.557200
     49 O4P          2.3580     4.1400     1.4630 os         1 PEE      -0.573200
     50 P            1.9930     5.3000     0.3430 p5         1 PEE       1.375800
     51 H1          -1.6010     5.2070    -2.3900 h1         1 PEE       0.066700
     52 H2           0.1150     6.3110    -1.2070 h1         1 PEE       0.046200
     53 H3          -1.2220     5.9660    -0.1290 h1         1 PEE       0.046200
     54 H4           2.1630     1.9070     2.4950 hn         1 PEE       0.452467
     55 H5           3.6050     1.2520     2.0430 hn         1 PEE       0.452467
     56 H6           3.1400     1.2060     3.6080 hn         1 PEE       0.452467
     57 H7          -0.4700     3.4210    -3.4770 h1         1 PEE       0.061700
     58 H8           0.6700     4.7110    -3.0840 h1         1 PEE       0.061700
     59 H9           4.1920     4.9380     2.0670 h1         1 PEE       0.068700
     60 H10          4.2880     3.5550     0.9780 h1         1 PEE       0.068700
     61 H11          3.2890     3.5450     3.8770 hx         1 PEE       0.092700
     62 H12          4.8300     2.9010     3.2900 hx         1 PEE       0.092700
     63 H13         -3.3380     1.6520    -0.8650 hc         1 PEE       0.066700
     64 H14         -3.4470     2.4410     0.6870 hc         1 PEE       0.066700
     65 H15         -5.6420     3.4480     0.0660 hc         1 PEE       0.054700
     66 H16         -5.5180     2.7730    -1.5440 hc         1 PEE       0.054700
     67 H17         -5.5150     0.4630    -0.5700 hc         1 PEE       0.034700
     68 H18         -5.6920     1.1440     1.0340 hc         1 PEE       0.034700
     69 H19         -7.8520     2.2020     0.3550 hc         1 PEE       0.040200
     70 H20         -7.6560     1.5740    -1.2660 hc         1 PEE       0.040200
     71 H21         -7.7210    -0.7640    -0.3660 hc         1 PEE       0.035700
     72 H22         -7.9550    -0.1340     1.2500 hc         1 PEE       0.035700
     73 H23        -10.0780     0.9670     0.5210 hc         1 PEE       0.038700
     74 H24         -9.8310     0.3730    -1.1050 hc         1 PEE       0.038700
     75 H25         -9.9500    -1.9840    -0.2630 hc         1 PEE       0.036700
     76 H26        -10.2170    -1.3890     1.3620 hc         1 PEE       0.036700
     77 H27        -12.3120    -0.2490     0.6050 hc         1 PEE       0.037700
     78 H28        -12.0380    -0.8240    -1.0240 hc         1 PEE       0.037700
     79 H29        -12.1930    -3.1900    -0.2150 hc         1 PEE       0.036700
     80 H30        -12.4770    -2.6150     1.4130 hc         1 PEE       0.036700
     81 H31        -14.5530    -1.4480     0.6410 hc         1 PEE       0.037700
     82 H32        -14.2660    -2.0150    -0.9880 hc         1 PEE       0.037700
     83 H33        -14.4440    -4.3850    -0.1940 hc         1 PEE       0.036700
     84 H34        -14.7350    -3.8170     1.4350 hc         1 PEE       0.036700
     85 H35        -16.8000    -2.6340     0.6550 hc         1 PEE       0.037700
     86 H36        -16.5080    -3.2000    -0.9740 hc         1 PEE       0.037700
     87 H37        -16.6990    -5.5710    -0.1850 hc         1 PEE       0.036700
     88 H38        -16.9940    -5.0040     1.4440 hc         1 PEE       0.036700
     89 H39        -19.0530    -3.8140     0.6590 hc         1 PEE       0.036700
     90 H40        -18.7590    -4.3810    -0.9690 hc         1 PEE       0.036700
     91 H41        -18.9560    -6.7510    -0.1770 hc         1 PEE       0.036700
     92 H42        -19.2530    -6.1820     1.4500 hc         1 PEE       0.036700
     93 H43        -21.3080    -4.9920     0.6590 hc         1 PEE       0.036700
     94 H44        -21.0120    -5.5630    -0.9660 hc         1 PEE       0.036700
     95 H45        -21.2380    -7.9450    -0.1710 hc         1 PEE       0.031367
     96 H46        -21.5540    -7.3620     1.4600 hc         1 PEE       0.031367
     97 H47        -22.6950    -7.0140     0.1640 hc         1 PEE       0.031367
     98 H48          2.5450     2.1100    -0.3990 hc         1 PEE       0.044200
     99 H49          2.3880     0.7880    -1.5320 hc         1 PEE       0.044200
    100 H50          4.4730     1.4900    -2.7000 hc         1 PEE       0.077200
    101 H51          4.6450     2.8440    -1.6020 hc         1 PEE       0.077200
    102 H52          5.0160     1.3420     0.2970 hc         1 PEE       0.004700
    103 H53          4.5850    -0.0620    -0.6590 hc         1 PEE       0.004700
    104 H54          6.5330     0.3090    -2.1320 hc         1 PEE       0.052200
    105 H55          6.9680     1.7550    -1.2500 hc         1 PEE       0.052200
    106 H56          7.4140     0.4250     0.7900 hc         1 PEE       0.026200
    107 H57          6.8510    -1.0310    -0.0010 hc         1 PEE       0.026200
    108 H58          8.6690    -0.8320    -1.6950 hc         1 PEE       0.043200
    109 H59          9.2450     0.6280    -0.9260 hc         1 PEE       0.043200
    110 H60          9.7650    -0.6500     1.1510 hc         1 PEE       0.034200
    111 H61          9.1310    -2.1110     0.4240 hc         1 PEE       0.034200
    112 H62         10.8510    -1.9630    -1.3840 hc         1 PEE       0.039700
    113 H63         11.4980    -0.5100    -0.6590 hc         1 PEE       0.039700
    114 H64         12.0920    -1.7900     1.4020 hc         1 PEE       0.036200
    115 H65         11.4100    -3.2430     0.7050 hc         1 PEE       0.036200
    116 H66         13.0540    -3.1130    -1.1770 hc         1 PEE       0.038200
    117 H67         13.7440    -1.6660    -0.4790 hc         1 PEE       0.038200
    118 H68         14.3960    -2.9530     1.5630 hc         1 PEE       0.036700
    119 H69         13.6860    -4.4010     0.8830 hc         1 PEE       0.036700
    120 H70         15.2770    -4.2760    -1.0450 hc         1 PEE       0.037700
    121 H71         15.9910    -2.8310    -0.3670 hc         1 PEE       0.037700
    122 H72         16.6820    -4.1220     1.6630 hc         1 PEE       0.036700
    123 H73         15.9600    -5.5670     0.9930 hc         1 PEE       0.036700
    124 H74         17.5200    -5.4410    -0.9620 hc         1 PEE       0.037200
    125 H75         18.2430    -3.9950    -0.2920 hc         1 PEE       0.037200
    126 H76         18.9530    -5.2880     1.7330 hc         1 PEE       0.036700
    127 H77         18.2290    -6.7340     1.0640 hc         1 PEE       0.036700
    128 H78         19.7810    -6.6020    -0.8960 hc         1 PEE       0.036700
    129 H79         20.5030    -5.1570    -0.2280 hc         1 PEE       0.036700
    130 H80         21.2440    -6.4620     1.7960 hc         1 PEE       0.031700
    131 H81         20.5230    -7.9160     1.1150 hc         1 PEE       0.031700
    132 H82         21.8970    -7.1570     0.3150 hc         1 PEE       0.031700
    133 C10         -3.0510     3.7620    -0.9130 c          1 PEE       0.643100
@<TRIPOS>BOND
     1     1     2 1   
     2     1     4 1   
     3     1    44 1   
     4     1    51 1   
     5     2    48 1   
     6     2    52 1   
     7     2    53 1   
     8     3     6 1   
     9     3    54 1   
    10     3    55 1   
    11     3    56 1   
    12     4    45 1   
    13     4    57 1   
    14     4    58 1   
    15     5     6 1   
    16     5    49 1   
    17     5    59 1   
    18     5    60 1   
    19     6    61 1   
    20     6    62 1   
    21     7     8 1   
    22     7    63 1   
    23     7    64 1   
    24     7   133 1   
    25     8     9 1   
    26     8    65 1   
    27     8    66 1   
    28     9    10 1   
    29     9    67 1   
    30     9    68 1   
    31    10    11 1   
    32    10    69 1   
    33    10    70 1   
    34    11    12 1   
    35    11    71 1   
    36    11    72 1   
    37    12    13 1   
    38    12    73 1   
    39    12    74 1   
    40    13    14 1   
    41    13    75 1   
    42    13    76 1   
    43    14    15 1   
    44    14    77 1   
    45    14    78 1   
    46    15    16 1   
    47    15    79 1   
    48    15    80 1   
    49    16    17 1   
    50    16    81 1   
    51    16    82 1   
    52    17    18 1   
    53    17    83 1   
    54    17    84 1   
    55    18    19 1   
    56    18    85 1   
    57    18    86 1   
    58    19    20 1   
    59    19    87 1   
    60    19    88 1   
    61    20    21 1   
    62    20    89 1   
    63    20    90 1   
    64    21    22 1   
    65    21    91 1   
    66    21    92 1   
    67    22    23 1   
    68    22    93 1   
    69    22    94 1   
    70    23    95 1   
    71    23    96 1   
    72    23    97 1   
    73    24    25 1   
    74    24    43 2   
    75    24    45 1   
    76    25    26 1   
    77    25    98 1   
    78    25    99 1   
    79    26    27 1   
    80    26   100 1   
    81    26   101 1   
    82    27    28 1   
    83    27   102 1   
    84    27   103 1   
    85    28    29 1   
    86    28   104 1   
    87    28   105 1   
    88    29    30 1   
    89    29   106 1   
    90    29   107 1   
    91    30    31 1   
    92    30   108 1   
    93    30   109 1   
    94    31    32 1   
    95    31   110 1   
    96    31   111 1   
    97    32    33 1   
    98    32   112 1   
    99    32   113 1   
   100    33    34 1   
   101    33   114 1   
   102    33   115 1   
   103    34    35 1   
   104    34   116 1   
   105    34   117 1   
   106    35    36 1   
   107    35   118 1   
   108    35   119 1   
   109    36    37 1   
   110    36   120 1   
   111    36   121 1   
   112    37    38 1   
   113    37   122 1   
   114    37   123 1   
   115    38    39 1   
   116    38   124 1   
   117    38   125 1   
   118    39    40 1   
   119    39   126 1   
   120    39   127 1   
   121    40    41 1   
   122    40   128 1   
   123    40   129 1   
   124    41   130 1   
   125    41   131 1   
   126    41   132 1   
   127    42   133 2   
   128    44   133 1   
   129    46    50 1   
   130    47    50 1   
   131    48    50 1   
   132    49    50 1   
@<TRIPOS>SUBSTRUCTURE
     1 PEE         1 TEMP              0 ****  ****    0 ROOT
