@<TRIPOS>MOLECULE
PEF
  120   119     1     0     0
SMALL
bcc


@<TRIPOS>ATOM
      1 C2          -4.3450     2.1530    -0.9380 c3         1 PEF       0.125100
      2 C1          -5.0270     0.9420    -0.3310 c3         1 PEF       0.189400
      3 N           -3.3420    -1.7240     4.9740 n8         1 PEF      -0.886800
      4 C3          -3.8540     3.1940     0.0470 c3         1 PEF       0.153400
      5 C4          -3.2230    -2.6480     2.7130 c3         1 PEF       0.198400
      6 C5          -2.4960    -2.4200     4.0190 c3         1 PEF       0.147800
      7 C11         -2.1170     0.9900    -3.6470 c3         1 PEF      -0.142400
      8 C12         -2.1330     1.0670    -5.1660 c3         1 PEF      -0.065400
      9 C13         -0.8070     0.6170    -5.7660 c3         1 PEF      -0.077400
     10 C14         -0.7690     0.7270    -7.2840 c3         1 PEF      -0.073400
     11 C15          0.5550     0.2680    -7.8810 c3         1 PEF      -0.075400
     12 C16          0.6110     0.3940    -9.3990 c3         1 PEF      -0.074400
     13 C17          1.9350    -0.0720    -9.9900 c3         1 PEF      -0.074400
     14 C18          2.0000     0.0550   -11.5070 c3         1 PEF      -0.074400
     15 C19          3.3250    -0.4160   -12.0920 c3         1 PEF      -0.074400
     16 C20          3.3940    -0.2940   -13.6090 c3         1 PEF      -0.074400
     17 C21          4.7200    -0.7710   -14.1900 c3         1 PEF      -0.074400
     18 C22          4.7920    -0.6530   -15.7070 c3         1 PEF      -0.074400
     19 C23          6.1180    -1.1330   -16.2840 c3         1 PEF      -0.075400
     20 C24          6.1980    -1.0150   -17.8010 c3         1 PEF      -0.075400
     21 C25          7.5270    -1.5010   -18.3620 c3         1 PEF      -0.088100
     22 C30         -3.0910     2.3390     2.1360 c          1 PEF       0.672100
     23 C31         -1.8940     1.7120     2.7920 c3         1 PEF      -0.143400
     24 C32         -1.9390     1.7530     4.3110 c3         1 PEF      -0.064400
     25 C33         -0.7030     1.1190     4.9320 c3         1 PEF      -0.079400
     26 C34         -0.7230     1.1240     6.4550 c3         1 PEF      -0.074400
     27 C35          0.5370     0.5240     7.0640 c3         1 PEF      -0.075400
     28 C36          0.5580     0.5580     8.5870 c3         1 PEF      -0.074400
     29 C37          1.8440    -0.0080     9.1760 c3         1 PEF      -0.074400
     30 C38          1.8910     0.0400    10.6980 c3         1 PEF      -0.074400
     31 C39          3.1950    -0.5020    11.2720 c3         1 PEF      -0.074400
     32 C40          3.2570    -0.4470    12.7930 c3         1 PEF      -0.074400
     33 C41          4.5710    -0.9740    13.3570 c3         1 PEF      -0.074400
     34 C42          4.6440    -0.9140    14.8780 c3         1 PEF      -0.074400
     35 C43          5.9640    -1.4310    15.4370 c3         1 PEF      -0.075400
     36 C44          6.0470    -1.3610    16.9560 c3         1 PEF      -0.075400
     37 C45          7.3710    -1.8790    17.5000 c3         1 PEF      -0.088100
     38 O4          -4.4780     1.4520    -3.5550 o          1 PEF      -0.561000
     39 O5          -4.1620     2.5000     2.6620 o          1 PEF      -0.545000
     40 O2          -3.2210     1.7570    -1.7300 os         1 PEF      -0.395900
     41 O3          -2.8130     2.7050     0.8840 os         1 PEF      -0.407900
     42 O1P         -5.9560    -1.3180     1.3730 o          1 PEF      -0.826500
     43 O2P         -4.1420    -2.3200    -0.1800 o          1 PEF      -0.826500
     44 O3P         -4.1020     0.1860     0.4150 os         1 PEF      -0.561200
     45 O4P         -3.4820    -1.3870     2.1160 os         1 PEF      -0.582200
     46 P           -4.5440    -1.3290     0.8700 p5         1 PEF       1.396800
     47 H21         -5.0900     2.6600    -1.5600 h1         1 PEF       0.049700
     48 H11         -5.8550     1.2990     0.2910 h1         1 PEF       0.039200
     49 H12         -5.4690     0.3510    -1.1420 h1         1 PEF       0.039200
     50 HN1         -2.8230    -1.5460     5.8240 hn         1 PEF       0.336800
     51 HN2         -3.5920    -0.8160     4.6020 hn         1 PEF       0.336800
     52 H31         -4.7010     3.5600     0.6270 h1         1 PEF       0.052200
     53 H32         -3.4340     4.0380    -0.5020 h1         1 PEF       0.052200
     54 H41         -4.1540    -3.1920     2.9100 h1         1 PEF       0.029200
     55 H42         -2.6060    -3.2690     2.0560 h1         1 PEF       0.029200
     56 H51         -2.2360    -3.4000     4.4280 h1         1 PEF       0.011200
     57 H52         -1.5450    -1.9120     3.8060 h1         1 PEF       0.011200
     58 H112        -1.2940     1.5820    -3.2400 hc         1 PEF       0.076700
     59 H111        -1.9270    -0.0410    -3.3250 hc         1 PEF       0.076700
     60 H122        -2.9420     0.4500    -5.5650 hc         1 PEF       0.048700
     61 H121        -2.3430     2.0940    -5.4790 hc         1 PEF       0.048700
     62 H132         0.0070     1.2130    -5.3400 hc         1 PEF       0.037700
     63 H131        -0.6080    -0.4200    -5.4700 hc         1 PEF       0.037700
     64 H142        -1.5870     0.1380    -7.7140 hc         1 PEF       0.037200
     65 H141        -0.9590     1.7660    -7.5770 hc         1 PEF       0.037200
     66 H152         1.3720     0.8490    -7.4390 hc         1 PEF       0.036700
     67 H151         0.7380    -0.7750    -7.5970 hc         1 PEF       0.036700
     68 H162        -0.2080    -0.1840    -9.8420 hc         1 PEF       0.036200
     69 H161         0.4330     1.4370    -9.6830 hc         1 PEF       0.036200
     70 H172         2.7540     0.5030    -9.5430 hc         1 PEF       0.036700
     71 H171         2.1110    -1.1160    -9.7060 hc         1 PEF       0.036700
     72 H182         1.1800    -0.5180   -11.9540 hc         1 PEF       0.036700
     73 H181         1.8280     1.0990   -11.7910 hc         1 PEF       0.036700
     74 H192         4.1440     0.1580   -11.6440 hc         1 PEF       0.037200
     75 H191         3.4960    -1.4600   -11.8050 hc         1 PEF       0.037200
     76 H202         2.5740    -0.8670   -14.0570 hc         1 PEF       0.036200
     77 H201         3.2250     0.7500   -13.8980 hc         1 PEF       0.036200
     78 H212         5.5390    -0.1970   -13.7420 hc         1 PEF       0.037200
     79 H211         4.8880    -1.8140   -13.8990 hc         1 PEF       0.037200
     80 H222         3.9720    -1.2260   -16.1560 hc         1 PEF       0.036200
     81 H221         4.6260     0.3900   -15.9990 hc         1 PEF       0.036200
     82 H232         6.9380    -0.5620   -15.8330 hc         1 PEF       0.036700
     83 H231         6.2840    -2.1770   -15.9940 hc         1 PEF       0.036700
     84 H242         5.3780    -1.5840   -18.2510 hc         1 PEF       0.036200
     85 H241         6.0360     0.0280   -18.0920 hc         1 PEF       0.036200
     86 H252         7.5710    -1.3910   -19.4460 hc         1 PEF       0.030367
     87 H251         8.3620    -0.9400   -17.9380 hc         1 PEF       0.030367
     88 H253         7.6900    -2.5560   -18.1310 hc         1 PEF       0.030367
     89 H312        -0.9820     2.1850     2.4200 hc         1 PEF       0.083700
     90 H311        -1.8620     0.6730     2.4460 hc         1 PEF       0.083700
     91 H322        -2.8350     1.2420     4.6710 hc         1 PEF       0.047700
     92 H321        -2.0240     2.7900     4.6510 hc         1 PEF       0.047700
     93 H332         0.1910     1.6460     4.5800 hc         1 PEF       0.037700
     94 H331        -0.6000     0.0880     4.5760 hc         1 PEF       0.037700
     95 H342        -1.6020     0.5750     6.8120 hc         1 PEF       0.037200
     96 H341        -0.8460     2.1530     6.8110 hc         1 PEF       0.037200
     97 H352         1.4120     1.0620     6.6800 hc         1 PEF       0.036200
     98 H351         0.6480    -0.5110     6.7230 hc         1 PEF       0.036200
     99 H362        -0.3000     0.0010     8.9790 hc         1 PEF       0.037200
    100 H361         0.4280     1.5920     8.9270 hc         1 PEF       0.037200
    101 H372         2.6990     0.5460     8.7700 hc         1 PEF       0.036200
    102 H371         1.9720    -1.0440     8.8420 hc         1 PEF       0.036200
    103 H382         1.0480    -0.5270    11.1080 hc         1 PEF       0.037200
    104 H381         1.7510     1.0740    11.0320 hc         1 PEF       0.037200
    105 H392         4.0350     0.0640    10.8540 hc         1 PEF       0.036700
    106 H391         3.3340    -1.5370    10.9400 hc         1 PEF       0.036700
    107 H402         2.4240    -1.0210    13.2130 hc         1 PEF       0.036700
    108 H401         3.1100     0.5870    13.1240 hc         1 PEF       0.036700
    109 H412         5.4030    -0.4020    12.9310 hc         1 PEF       0.036200
    110 H411         4.7180    -2.0090    13.0280 hc         1 PEF       0.036200
    111 H422         3.8170    -1.4910    15.3050 hc         1 PEF       0.036200
    112 H421         4.4920     0.1200    15.2070 hc         1 PEF       0.036200
    113 H432         6.7910    -0.8580    15.0030 hc         1 PEF       0.036700
    114 H431         6.1140    -2.4670    15.1140 hc         1 PEF       0.036700
    115 H442         5.2220    -1.9350    17.3900 hc         1 PEF       0.036200
    116 H441         5.8970    -0.3260    17.2790 hc         1 PEF       0.036200
    117 H452         7.4190    -1.8000    18.5870 hc         1 PEF       0.030033
    118 H451         7.5220    -2.9280    17.2390 hc         1 PEF       0.030033
    119 H453         8.2110    -1.3140    17.0910 hc         1 PEF       0.030033
    120 C10         -3.4060     1.4230    -3.0030 c          1 PEF       0.652100
@<TRIPOS>BOND
     1     1     2 1   
     2     1     4 1   
     3     1    40 1   
     4     1    47 1   
     5     2    44 1   
     6     2    48 1   
     7     2    49 1   
     8     3     6 1   
     9     3    50 1   
    10     3    51 1   
    11     4    41 1   
    12     4    52 1   
    13     4    53 1   
    14     5     6 1   
    15     5    45 1   
    16     5    54 1   
    17     5    55 1   
    18     6    56 1   
    19     6    57 1   
    20     7     8 1   
    21     7    58 1   
    22     7    59 1   
    23     7   120 1   
    24     8     9 1   
    25     8    60 1   
    26     8    61 1   
    27     9    10 1   
    28     9    62 1   
    29     9    63 1   
    30    10    11 1   
    31    10    64 1   
    32    10    65 1   
    33    11    12 1   
    34    11    66 1   
    35    11    67 1   
    36    12    13 1   
    37    12    68 1   
    38    12    69 1   
    39    13    14 1   
    40    13    70 1   
    41    13    71 1   
    42    14    15 1   
    43    14    72 1   
    44    14    73 1   
    45    15    16 1   
    46    15    74 1   
    47    15    75 1   
    48    16    17 1   
    49    16    76 1   
    50    16    77 1   
    51    17    18 1   
    52    17    78 1   
    53    17    79 1   
    54    18    19 1   
    55    18    80 1   
    56    18    81 1   
    57    19    20 1   
    58    19    82 1   
    59    19    83 1   
    60    20    21 1   
    61    20    84 1   
    62    20    85 1   
    63    21    86 1   
    64    21    87 1   
    65    21    88 1   
    66    22    23 1   
    67    22    39 2   
    68    22    41 1   
    69    23    24 1   
    70    23    89 1   
    71    23    90 1   
    72    24    25 1   
    73    24    91 1   
    74    24    92 1   
    75    25    26 1   
    76    25    93 1   
    77    25    94 1   
    78    26    27 1   
    79    26    95 1   
    80    26    96 1   
    81    27    28 1   
    82    27    97 1   
    83    27    98 1   
    84    28    29 1   
    85    28    99 1   
    86    28   100 1   
    87    29    30 1   
    88    29   101 1   
    89    29   102 1   
    90    30    31 1   
    91    30   103 1   
    92    30   104 1   
    93    31    32 1   
    94    31   105 1   
    95    31   106 1   
    96    32    33 1   
    97    32   107 1   
    98    32   108 1   
    99    33    34 1   
   100    33   109 1   
   101    33   110 1   
   102    34    35 1   
   103    34   111 1   
   104    34   112 1   
   105    35    36 1   
   106    35   113 1   
   107    35   114 1   
   108    36    37 1   
   109    36   115 1   
   110    36   116 1   
   111    37   117 1   
   112    37   118 1   
   113    37   119 1   
   114    38   120 2   
   115    40   120 1   
   116    42    46 1   
   117    43    46 1   
   118    44    46 1   
   119    45    46 1   
@<TRIPOS>SUBSTRUCTURE
     1 PEF         1 TEMP              0 ****  ****    0 ROOT
