@<TRIPOS>MOLECULE
PEF
  120   119     1     0     0
SMALL
No Charge or Current Charge


@<TRIPOS>ATOM
      1 C2          -4.2330     1.6490    -1.0490 c3         1 PEF       0.148300
      2 C1          -4.9880     0.8100     0.0380 c3         1 PEF       0.212600
      3 N           -5.2190     0.3990     3.5690 n8         1 PEF      -0.997200
      4 C3          -3.3150     2.8030    -0.5380 c3         1 PEF       0.176600
      5 C4          -5.0290    -2.1110     3.1410 c3         1 PEF       0.221600
      6 C5          -4.4460    -0.8340     3.8340 c3         1 PEF       0.147800
      7 C11         -3.1080    -0.7960    -3.6820 c3         1 PEF      -0.142400
      8 C12         -2.5770     0.0200    -4.8840 c3         1 PEF      -0.065400
      9 C13         -1.5700    -0.7670    -5.7510 c3         1 PEF      -0.077400
     10 C14         -1.0410     0.0480    -6.9510 c3         1 PEF      -0.073400
     11 C15         -0.0360    -0.7390    -7.8210 c3         1 PEF      -0.075400
     12 C16          0.4930     0.0760    -9.0210 c3         1 PEF      -0.074400
     13 C17          1.4950    -0.7130    -9.8920 c3         1 PEF      -0.074400
     14 C18          2.0250     0.1030   -11.0920 c3         1 PEF      -0.074400
     15 C19          3.0260    -0.6860   -11.9640 c3         1 PEF      -0.074400
     16 C20          3.5570     0.1310   -13.1630 c3         1 PEF      -0.074400
     17 C21          4.5570    -0.6580   -14.0360 c3         1 PEF      -0.074400
     18 C22          5.0890     0.1590   -15.2340 c3         1 PEF      -0.074400
     19 C23          6.0890    -0.6300   -16.1080 c3         1 PEF      -0.075400
     20 C24          6.6210     0.1870   -17.3050 c3         1 PEF      -0.075400
     21 C25          7.6180    -0.6000   -18.1770 c3         1 PEF      -0.088100
     22 C30         -2.4520     2.2930     1.6770 c          1 PEF       0.623100
     23 C31         -1.2750     1.6290     2.3960 c3         1 PEF      -0.143400
     24 C32         -1.2310     1.8290     3.9300 c3         1 PEF      -0.064400
     25 C33         -0.0400     1.1070     4.5960 c3         1 PEF      -0.079400
     26 C34          0.0040     1.3030     6.1280 c3         1 PEF      -0.074400
     27 C35          1.1960     0.5820     6.7950 c3         1 PEF      -0.075400
     28 C36          1.2410     0.7810     8.3260 c3         1 PEF      -0.074400
     29 C37          2.4340     0.0620     8.9940 c3         1 PEF      -0.074400
     30 C38          2.4810     0.2630    10.5240 c3         1 PEF      -0.074400
     31 C39          3.6750    -0.4550    11.1910 c3         1 PEF      -0.074400
     32 C40          3.7240    -0.2530    12.7210 c3         1 PEF      -0.074400
     33 C41          4.9200    -0.9690    13.3870 c3         1 PEF      -0.074400
     34 C42          4.9700    -0.7670    14.9170 c3         1 PEF      -0.074400
     35 C43          6.1670    -1.4830    15.5820 c3         1 PEF      -0.075400
     36 C44          6.2180    -1.2810    17.1120 c3         1 PEF      -0.075400
     37 C45          7.4120    -1.9940    17.7760 c3         1 PEF      -0.088100
     38 O4          -5.2880     0.1140    -3.1200 o          1 PEF      -0.512000
     39 O5          -3.4070     2.8040     2.2490 o          1 PEF      -0.496000
     40 O2          -3.4500     0.7940    -1.9180 os         1 PEF      -0.419100
     41 O3          -2.2570     2.3130     0.3190 os         1 PEF      -0.431100
     42 O1P         -4.2110    -2.0510    -0.6460 o          1 PEF      -0.826500
     43 O2P         -2.6670    -2.0620     1.2730 o          1 PEF      -0.826500
     44 O3P         -4.0730     0.0490     0.8480 os         1 PEF      -0.584400
     45 O4P         -5.1890    -1.9510     1.7120 os         1 PEF      -0.605400
     46 P           -3.9640    -1.5560     0.7390 p5         1 PEF       1.396800
     47 H21         -5.0060     2.1520    -1.6450 h1         1 PEF       0.049700
     48 H11         -5.5580     1.5010     0.6730 h1         1 PEF       0.039200
     49 H12         -5.7210     0.1560    -0.4520 h1         1 PEF       0.039200
     50 HN1         -4.7040     1.2000     3.9500 hn         1 PEF       0.392000
     51 HN2         -5.1590     0.5530     2.5530 hn         1 PEF       0.392000
     52 H31         -3.9220     3.5700    -0.0400 h1         1 PEF       0.052200
     53 H32         -2.8710     3.2830    -1.4200 h1         1 PEF       0.052200
     54 H41         -6.0030    -2.3390     3.5950 h1         1 PEF       0.029200
     55 H42         -4.3680    -2.9620     3.3560 h1         1 PEF       0.029200
     56 H51         -4.4260    -0.9950     4.9200 h1         1 PEF       0.011200
     57 H52         -3.4120    -0.6680     3.5060 h1         1 PEF       0.011200
     58 H112        -2.2500    -1.0600    -3.0530 hc         1 PEF       0.076700
     59 H111        -3.6090    -1.6980    -4.0510 hc         1 PEF       0.076700
     60 H122        -3.4240     0.3330    -5.5080 hc         1 PEF       0.048700
     61 H121        -2.0980     0.9360    -4.5150 hc         1 PEF       0.048700
     62 H132        -0.7240    -1.0790    -5.1270 hc         1 PEF       0.037700
     63 H131        -2.0510    -1.6810    -6.1210 hc         1 PEF       0.037700
     64 H142        -1.8870     0.3630    -7.5750 hc         1 PEF       0.037200
     65 H141        -0.5590     0.9620    -6.5820 hc         1 PEF       0.037200
     66 H152         0.8100    -1.0540    -7.1970 hc         1 PEF       0.036700
     67 H151        -0.5190    -1.6530    -8.1900 hc         1 PEF       0.036700
     68 H162        -0.3540     0.3920    -9.6430 hc         1 PEF       0.036200
     69 H161         0.9780     0.9880    -8.6510 hc         1 PEF       0.036200
     70 H172         2.3420    -1.0300    -9.2700 hc         1 PEF       0.036700
     71 H171         1.0100    -1.6250   -10.2630 hc         1 PEF       0.036700
     72 H182         1.1790     0.4210   -11.7130 hc         1 PEF       0.036700
     73 H181         2.5110     1.0140   -10.7210 hc         1 PEF       0.036700
     74 H192         3.8720    -1.0050   -11.3430 hc         1 PEF       0.037200
     75 H191         2.5390    -1.5960   -12.3360 hc         1 PEF       0.037200
     76 H202         2.7110     0.4510   -13.7840 hc         1 PEF       0.036200
     77 H201         4.0440     1.0410   -12.7910 hc         1 PEF       0.036200
     78 H212         5.4030    -0.9790   -13.4150 hc         1 PEF       0.037200
     79 H211         4.0700    -1.5680   -14.4090 hc         1 PEF       0.037200
     80 H222         4.2430     0.4800   -15.8550 hc         1 PEF       0.036200
     81 H221         5.5760     1.0690   -14.8610 hc         1 PEF       0.036200
     82 H232         6.9350    -0.9510   -15.4870 hc         1 PEF       0.036700
     83 H231         5.6020    -1.5400   -16.4800 hc         1 PEF       0.036700
     84 H242         5.7780     0.5080   -17.9300 hc         1 PEF       0.036200
     85 H241         7.1110     1.0970   -16.9370 hc         1 PEF       0.036200
     86 H252         7.9670     0.0190   -19.0120 hc         1 PEF       0.030367
     87 H251         8.4920    -0.9060   -17.5880 hc         1 PEF       0.030367
     88 H253         7.1470    -1.5000   -18.5910 hc         1 PEF       0.030367
     89 H312        -0.3510     1.9530     1.9060 hc         1 PEF       0.083700
     90 H311        -1.2980     0.5680     2.1250 hc         1 PEF       0.083700
     91 H322        -2.1660     1.4590     4.3700 hc         1 PEF       0.047700
     92 H321        -1.1750     2.9020     4.1520 hc         1 PEF       0.047700
     93 H332         0.8960     1.4770     4.1590 hc         1 PEF       0.037700
     94 H331        -0.0980     0.0350     4.3720 hc         1 PEF       0.037700
     95 H342        -0.9320     0.9330     6.5650 hc         1 PEF       0.037200
     96 H341         0.0610     2.3760     6.3520 hc         1 PEF       0.037200
     97 H352         2.1310     0.9500     6.3560 hc         1 PEF       0.036200
     98 H351         1.1380    -0.4910     6.5730 hc         1 PEF       0.036200
     99 H362         0.3060     0.4120     8.7660 hc         1 PEF       0.037200
    100 H361         1.2980     1.8540     8.5480 hc         1 PEF       0.037200
    101 H372         3.3690     0.4300     8.5530 hc         1 PEF       0.036200
    102 H371         2.3760    -1.0120     8.7730 hc         1 PEF       0.036200
    103 H382         1.5470    -0.1070    10.9650 hc         1 PEF       0.037200
    104 H381         2.5380     1.3360    10.7450 hc         1 PEF       0.037200
    105 H392         4.6090    -0.0860    10.7490 hc         1 PEF       0.036700
    106 H391         3.6190    -1.5280    10.9710 hc         1 PEF       0.036700
    107 H402         2.7910    -0.6230    13.1640 hc         1 PEF       0.036700
    108 H401         3.7800     0.8210    12.9410 hc         1 PEF       0.036700
    109 H412         5.8530    -0.6000    12.9440 hc         1 PEF       0.036200
    110 H411         4.8640    -2.0430    13.1670 hc         1 PEF       0.036200
    111 H422         4.0380    -1.1370    15.3600 hc         1 PEF       0.036200
    112 H421         5.0260     0.3070    15.1370 hc         1 PEF       0.036200
    113 H432         7.1000    -1.1120    15.1390 hc         1 PEF       0.036700
    114 H431         6.1120    -2.5560    15.3620 hc         1 PEF       0.036700
    115 H442         5.2870    -1.6530    17.5590 hc         1 PEF       0.036200
    116 H441         6.2740    -0.2080    17.3360 hc         1 PEF       0.036200
    117 H452         7.4050    -1.8220    18.8590 hc         1 PEF       0.030033
    118 H451         7.3650    -3.0750    17.5990 hc         1 PEF       0.030033
    119 H453         8.3600    -1.6180    17.3740 hc         1 PEF       0.030033
    120 C10         -4.0980     0.0190    -2.8470 c          1 PEF       0.603100
@<TRIPOS>BOND
     1     1     2 1   
     2     1     4 1   
     3     1    40 1   
     4     1    47 1   
     5     2    44 1   
     6     2    48 1   
     7     2    49 1   
     8     3     6 1   
     9     3    50 1   
    10     3    51 1   
    11     4    41 1   
    12     4    52 1   
    13     4    53 1   
    14     5     6 1   
    15     5    45 1   
    16     5    54 1   
    17     5    55 1   
    18     6    56 1   
    19     6    57 1   
    20     7     8 1   
    21     7    58 1   
    22     7    59 1   
    23     7   120 1   
    24     8     9 1   
    25     8    60 1   
    26     8    61 1   
    27     9    10 1   
    28     9    62 1   
    29     9    63 1   
    30    10    11 1   
    31    10    64 1   
    32    10    65 1   
    33    11    12 1   
    34    11    66 1   
    35    11    67 1   
    36    12    13 1   
    37    12    68 1   
    38    12    69 1   
    39    13    14 1   
    40    13    70 1   
    41    13    71 1   
    42    14    15 1   
    43    14    72 1   
    44    14    73 1   
    45    15    16 1   
    46    15    74 1   
    47    15    75 1   
    48    16    17 1   
    49    16    76 1   
    50    16    77 1   
    51    17    18 1   
    52    17    78 1   
    53    17    79 1   
    54    18    19 1   
    55    18    80 1   
    56    18    81 1   
    57    19    20 1   
    58    19    82 1   
    59    19    83 1   
    60    20    21 1   
    61    20    84 1   
    62    20    85 1   
    63    21    86 1   
    64    21    87 1   
    65    21    88 1   
    66    22    23 1   
    67    22    39 2   
    68    22    41 1   
    69    23    24 1   
    70    23    89 1   
    71    23    90 1   
    72    24    25 1   
    73    24    91 1   
    74    24    92 1   
    75    25    26 1   
    76    25    93 1   
    77    25    94 1   
    78    26    27 1   
    79    26    95 1   
    80    26    96 1   
    81    27    28 1   
    82    27    97 1   
    83    27    98 1   
    84    28    29 1   
    85    28    99 1   
    86    28   100 1   
    87    29    30 1   
    88    29   101 1   
    89    29   102 1   
    90    30    31 1   
    91    30   103 1   
    92    30   104 1   
    93    31    32 1   
    94    31   105 1   
    95    31   106 1   
    96    32    33 1   
    97    32   107 1   
    98    32   108 1   
    99    33    34 1   
   100    33   109 1   
   101    33   110 1   
   102    34    35 1   
   103    34   111 1   
   104    34   112 1   
   105    35    36 1   
   106    35   113 1   
   107    35   114 1   
   108    36    37 1   
   109    36   115 1   
   110    36   116 1   
   111    37   117 1   
   112    37   118 1   
   113    37   119 1   
   114    38   120 2   
   115    40   120 1   
   116    42    46 1   
   117    43    46 1   
   118    44    46 1   
   119    45    46 1   
@<TRIPOS>SUBSTRUCTURE
     1 PEF         1 TEMP              0 ****  ****    0 ROOT
