@<TRIPOS>MOLECULE
PEG
   17    16     1     0     0
SMALL
No Charge or Current Charge


@<TRIPOS>ATOM
      1 C1          -2.3790    -0.0650    -0.5490 c3         1 PEG       0.164100
      2 O1          -2.7690    -0.7700     0.6470 oh         1 PEG      -0.709000
      3 C2          -1.1890     0.8980    -0.2860 c3         1 PEG       0.160600
      4 O2          -0.0060     0.1250     0.0020 os         1 PEG      -0.432000
      5 C3           1.1700     0.9150     0.2730 c3         1 PEG       0.160600
      6 C4           2.3700    -0.0290     0.5550 c3         1 PEG       0.164100
      7 O4           2.7670    -0.7550    -0.6260 oh         1 PEG      -0.709000
      8 H11         -2.0970    -0.7740    -1.3390 h1         1 PEG       0.025200
      9 H12         -3.2250     0.5260    -0.9260 h1         1 PEG       0.025200
     10 HO1         -3.4830    -1.3990     0.3880 ho         1 PEG       0.499500
     11 H21         -1.0310     1.5170    -1.1790 h1         1 PEG       0.025450
     12 H22         -1.4350     1.5650     0.5510 h1         1 PEG       0.025450
     13 H31          1.4100     1.5680    -0.5780 h1         1 PEG       0.025450
     14 H32          1.0060     1.5510     1.1530 h1         1 PEG       0.025450
     15 H41          3.2100     0.5780     0.9200 h1         1 PEG       0.025200
     16 H42          2.0950    -0.7240     1.3600 h1         1 PEG       0.025200
     17 HO4          3.4870    -1.3710    -0.3540 ho         1 PEG       0.499500
@<TRIPOS>BOND
     1     1     2 1   
     2     1     3 1   
     3     1     8 1   
     4     1     9 1   
     5     2    10 1   
     6     3     4 1   
     7     3    11 1   
     8     3    12 1   
     9     4     5 1   
    10     5     6 1   
    11     5    13 1   
    12     5    14 1   
    13     6     7 1   
    14     6    15 1   
    15     6    16 1   
    16     7    17 1   
@<TRIPOS>SUBSTRUCTURE
     1 PEG         1 TEMP              0 ****  ****    0 ROOT
