@<TRIPOS>MOLECULE
PEG
   17    16     1     0     0
SMALL
bcc


@<TRIPOS>ATOM
      1 C1          -2.3240    -0.0640    -0.5560 c3         1 PEG       0.140900
      2 O1          -2.6550    -0.7830     0.6100 oh         1 PEG      -0.586800
      3 C2          -1.1440     0.8310    -0.2810 c3         1 PEG       0.137400
      4 O2          -0.0050     0.0590     0.0010 os         1 PEG      -0.385600
      5 C3           1.1260     0.8490     0.2690 c3         1 PEG       0.137400
      6 C4           2.3160    -0.0260     0.5620 c3         1 PEG       0.140900
      7 O4           2.6620    -0.7570    -0.5920 oh         1 PEG      -0.586800
      8 H11         -2.0870    -0.7340    -1.3930 h1         1 PEG       0.025200
      9 H12         -3.1490     0.5790    -0.8890 h1         1 PEG       0.025200
     10 HO1         -3.4650    -1.2710     0.4390 ho         1 PEG       0.400500
     11 H21         -0.9810     1.4640    -1.1660 h1         1 PEG       0.025450
     12 H22         -1.3740     1.5090     0.5540 h1         1 PEG       0.025450
     13 H31          1.3500     1.5130    -0.5800 h1         1 PEG       0.025450
     14 H32          0.9550     1.4990     1.1390 h1         1 PEG       0.025450
     15 H41          3.1310     0.6320     0.8890 h1         1 PEG       0.025200
     16 H42          2.0840    -0.6870     1.4080 h1         1 PEG       0.025200
     17 HO4          3.4600    -1.2570    -0.4010 ho         1 PEG       0.400500
@<TRIPOS>BOND
     1     1     2 1   
     2     1     3 1   
     3     1     8 1   
     4     1     9 1   
     5     2    10 1   
     6     3     4 1   
     7     3    11 1   
     8     3    12 1   
     9     4     5 1   
    10     5     6 1   
    11     5    13 1   
    12     5    14 1   
    13     6     7 1   
    14     6    15 1   
    15     6    16 1   
    16     7    17 1   
@<TRIPOS>SUBSTRUCTURE
     1 PEG         1 TEMP              0 ****  ****    0 ROOT
