@<TRIPOS>MOLECULE
PEH
  132   131     1     0     0
SMALL
No Charge or Current Charge


@<TRIPOS>ATOM
      1 P           -6.1840     0.0600     2.6040 p5         1 PEH       1.394800
      2 N           -3.5640    -1.7230     0.7090 n8         1 PEH      -1.003200
      3 O11         -6.2290    -0.3830     1.0510 os         1 PEH      -0.569400
      4 O12         -4.5880     0.1180     2.8270 os         1 PEH      -0.596400
      5 O13         -6.8340    -0.9510     3.4890 o          1 PEH      -0.831000
      6 O14         -6.7710     1.4170     2.8100 o          1 PEH      -0.831000
      7 C11         -3.8040    -1.0480     3.1580 c3         1 PEH       0.219600
      8 C12         -3.9210    -2.1700     2.0760 c3         1 PEH       0.148800
      9 C1          -6.9970     0.3440     0.0740 c3         1 PEH       0.217600
     10 C2          -6.1140     1.2580    -0.8380 c3         1 PEH       0.151300
     11 C3          -5.3670     2.4290    -0.1450 c3         1 PEH       0.174600
     12 O31         -4.1830     1.9510     0.5230 os         1 PEH      -0.418100
     13 O32         -3.5200     4.0880     1.0280 o          1 PEH      -0.513000
     14 C31         -3.3640     2.8760     1.1160 c          1 PEH       0.636100
     15 C32         -2.0950     2.2350     1.6900 c3         1 PEH      -0.120400
     16 C33         -2.0070     2.4060     3.2260 c3         1 PEH      -0.066400
     17 C34         -0.7630     1.7250     3.8380 c3         1 PEH      -0.084400
     18 C35         -0.6920     1.8660     5.3740 c3         1 PEH      -0.071400
     19 C36          0.5500     1.1830     5.9870 c3         1 PEH      -0.074400
     20 C37          0.6180     1.3220     7.5240 c3         1 PEH      -0.074400
     21 C38          1.8610     0.6410     8.1380 c3         1 PEH      -0.074400
     22 C39          1.9260     0.7770     9.6750 c3         1 PEH      -0.074400
     23 C3A          3.1690     0.0970    10.2900 c3         1 PEH      -0.074400
     24 C3B          3.2330     0.2290    11.8270 c3         1 PEH      -0.074400
     25 C3C          4.4770    -0.4500    12.4410 c3         1 PEH      -0.074400
     26 C3D          4.5400    -0.3200    13.9790 c3         1 PEH      -0.074400
     27 C3E          5.7850    -0.9970    14.5920 c3         1 PEH      -0.074400
     28 C3F          5.8480    -0.8680    16.1300 c3         1 PEH      -0.074400
     29 C3G          7.0950    -1.5420    16.7430 c3         1 PEH      -0.075400
     30 C3H          7.1580    -1.4140    18.2810 c3         1 PEH      -0.075400
     31 C3I          8.4020    -2.0860    18.8920 c3         1 PEH      -0.088100
     32 O21         -5.1530     0.4690    -1.5870 os         1 PEH      -0.416100
     33 O22         -6.7480    -0.4040    -2.9950 o          1 PEH      -0.517000
     34 C21         -5.5930    -0.3510    -2.5930 c          1 PEH       0.601100
     35 C22         -4.4330    -1.0880    -3.2650 c3         1 PEH      -0.142400
     36 C23         -3.8670    -0.2770    -4.4550 c3         1 PEH      -0.066400
     37 C24         -2.6940    -0.9860    -5.1650 c3         1 PEH      -0.077400
     38 C25         -2.1380    -0.1820    -6.3610 c3         1 PEH      -0.073400
     39 C26         -0.9700    -0.8940    -7.0780 c3         1 PEH      -0.075400
     40 C27         -0.4220    -0.0950    -8.2800 c3         1 PEH      -0.074400
     41 C28          0.7390    -0.8120    -9.0030 c3         1 PEH      -0.074400
     42 C29          1.2800    -0.0200   -10.2140 c3         1 PEH      -0.074400
     43 C2A          2.4360    -0.7410   -10.9400 c3         1 PEH      -0.074400
     44 C2B          2.9710     0.0460   -12.1560 c3         1 PEH      -0.074400
     45 C2C          4.1240    -0.6780   -12.8850 c3         1 PEH      -0.074400
     46 C2D          4.6580     0.1080   -14.1030 c3         1 PEH      -0.074400
     47 C2E          5.8110    -0.6170   -14.8300 c3         1 PEH      -0.074400
     48 C2F          6.3440     0.1660   -16.0510 c3         1 PEH      -0.074400
     49 C2G          7.4990    -0.5600   -16.7770 c3         1 PEH      -0.075400
     50 C2H          8.0320     0.2210   -17.9980 c3         1 PEH      -0.075400
     51 C2I          9.1830    -0.5040   -18.7210 c3         1 PEH      -0.088100
     52 HN1         -3.8440    -2.4480     0.0420 hn         1 PEH       0.392000
     53 HN2         -4.1920    -0.9350     0.4890 hn         1 PEH       0.392000
     54 H111        -2.7480    -0.7650     3.2550 h1         1 PEH       0.027200
     55 H112        -4.1190    -1.4550     4.1280 h1         1 PEH       0.027200
     56 H121        -3.2600    -3.0030     2.3480 h1         1 PEH       0.016200
     57 H122        -4.9480    -2.5570     2.0550 h1         1 PEH       0.016200
     58 H11         -7.7630     0.9660     0.5530 h1         1 PEH       0.032700
     59 H12         -7.5430    -0.3680    -0.5550 h1         1 PEH       0.032700
     60 H2          -6.8060     1.7400    -1.5420 h1         1 PEH       0.049700
     61 H31         -6.0420     2.9280     0.5620 h1         1 PEH       0.049700
     62 H32         -5.0930     3.1610    -0.9160 h1         1 PEH       0.049700
     63 H321        -1.2240     2.7180     1.2330 hc         1 PEH       0.065200
     64 H322        -2.0910     1.1640     1.4560 hc         1 PEH       0.065200
     65 H331        -2.9100     1.9930     3.6900 hc         1 PEH       0.060200
     66 H332        -1.9890     3.4760     3.4690 hc         1 PEH       0.060200
     67 H341         0.1410     2.1590     3.3930 hc         1 PEH       0.043200
     68 H342        -0.7670     0.6600     3.5750 hc         1 PEH       0.043200
     69 H351        -1.5970     1.4320     5.8170 hc         1 PEH       0.035700
     70 H352        -0.6850     2.9310     5.6380 hc         1 PEH       0.035700
     71 H361         1.4550     1.6190     5.5460 hc         1 PEH       0.035200
     72 H362         0.5440     0.1190     5.7210 hc         1 PEH       0.035200
     73 H371        -0.2870     0.8840     7.9650 hc         1 PEH       0.035700
     74 H372         0.6220     2.3860     7.7900 hc         1 PEH       0.035700
     75 H381         2.7650     1.0790     7.6990 hc         1 PEH       0.035200
     76 H382         1.8580    -0.4230     7.8710 hc         1 PEH       0.035200
     77 H391         1.0210     0.3380    10.1150 hc         1 PEH       0.036200
     78 H392         1.9290     1.8410     9.9430 hc         1 PEH       0.036200
     79 H3A1         4.0740     0.5380     9.8530 hc         1 PEH       0.035700
     80 H3A2         3.1680    -0.9670    10.0200 hc         1 PEH       0.035700
     81 H3B1         2.3290    -0.2120    12.2650 hc         1 PEH       0.036700
     82 H3B2         3.2330     1.2930    12.0980 hc         1 PEH       0.036700
     83 H3C1         5.3810    -0.0070    12.0050 hc         1 PEH       0.036200
     84 H3C2         4.4780    -1.5130    12.1700 hc         1 PEH       0.036200
     85 H3D1         3.6370    -0.7640    14.4150 hc         1 PEH       0.037200
     86 H3D2         4.5380     0.7430    14.2510 hc         1 PEH       0.037200
     87 H3E1         6.6880    -0.5530    14.1560 hc         1 PEH       0.036700
     88 H3E2         5.7870    -2.0600    14.3200 hc         1 PEH       0.036700
     89 H3F1         4.9450    -1.3150    16.5660 hc         1 PEH       0.036700
     90 H3F2         5.8430     0.1950    16.4030 hc         1 PEH       0.036700
     91 H3G1         7.9970    -1.0950    16.3070 hc         1 PEH       0.036700
     92 H3G2         7.1000    -2.6050    16.4700 hc         1 PEH       0.036700
     93 H3H1         6.2580    -1.8630    18.7200 hc         1 PEH       0.036200
     94 H3H2         7.1540    -0.3520    18.5580 hc         1 PEH       0.036200
     95 H3I1         8.4030    -1.9690    19.9820 hc         1 PEH       0.030033
     96 H3I2         8.4160    -3.1580    18.6620 hc         1 PEH       0.030033
     97 H3I3         9.3200    -1.6340    18.4970 hc         1 PEH       0.030033
     98 H221        -3.6240    -1.2180    -2.5370 hc         1 PEH       0.073700
     99 H222        -4.7870    -2.0590    -3.6280 hc         1 PEH       0.073700
    100 H231        -4.6700    -0.0940    -5.1800 hc         1 PEH       0.049200
    101 H232        -3.5320     0.7050    -4.0950 hc         1 PEH       0.049200
    102 H241        -1.8870    -1.1620    -4.4430 hc         1 PEH       0.037700
    103 H242        -3.0280    -1.9700    -5.5190 hc         1 PEH       0.037700
    104 H251        -2.9460    -0.0020    -7.0810 hc         1 PEH       0.037700
    105 H252        -1.7990     0.8000    -6.0080 hc         1 PEH       0.037700
    106 H261        -0.1580    -1.0670    -6.3600 hc         1 PEH       0.036700
    107 H262        -1.3080    -1.8790    -7.4240 hc         1 PEH       0.036700
    108 H271        -1.2360     0.0820    -8.9950 hc         1 PEH       0.036700
    109 H272        -0.0790     0.8880    -7.9340 hc         1 PEH       0.036700
    110 H281         1.5560    -0.9830    -8.2900 hc         1 PEH       0.037200
    111 H282         0.3980    -1.7980    -9.3420 hc         1 PEH       0.037200
    112 H291         0.4610     0.1540   -10.9240 hc         1 PEH       0.036200
    113 H292         1.6250     0.9650    -9.8750 hc         1 PEH       0.036200
    114 H2A1         3.2560    -0.9110   -10.2310 hc         1 PEH       0.037200
    115 H2A2         2.0910    -1.7280   -11.2740 hc         1 PEH       0.037200
    116 H2B1         2.1500     0.2180   -12.8630 hc         1 PEH       0.036700
    117 H2B2         3.3180     1.0320   -11.8220 hc         1 PEH       0.036700
    118 H2C1         4.9460    -0.8480   -12.1780 hc         1 PEH       0.037200
    119 H2C2         3.7770    -1.6640   -13.2170 hc         1 PEH       0.037200
    120 H2D1         3.8370     0.2780   -14.8100 hc         1 PEH       0.036700
    121 H2D2         5.0060     1.0950   -13.7710 hc         1 PEH       0.036700
    122 H2E1         6.6340    -0.7860   -14.1240 hc         1 PEH       0.037200
    123 H2E2         5.4640    -1.6050   -15.1600 hc         1 PEH       0.037200
    124 H2F1         5.5230     0.3330   -16.7580 hc         1 PEH       0.036700
    125 H2F2         6.6910     1.1540   -15.7220 hc         1 PEH       0.036700
    126 H2G1         8.3210    -0.7270   -16.0690 hc         1 PEH       0.036700
    127 H2G2         7.1530    -1.5490   -17.1050 hc         1 PEH       0.036700
    128 H2H1         7.2130     0.3870   -18.7090 hc         1 PEH       0.036200
    129 H2H2         8.3810     1.2090   -17.6740 hc         1 PEH       0.036200
    130 H2I1         9.5270     0.0860   -19.5790 hc         1 PEH       0.030700
    131 H2I2        10.0340    -0.6530   -18.0450 hc         1 PEH       0.030700
    132 H2I3         8.8550    -1.4840   -19.0880 hc         1 PEH       0.030700
@<TRIPOS>BOND
     1     1     3 1   
     2     1     4 1   
     3     1     5 1   
     4     1     6 1   
     5     2     8 1   
     6     2    52 1   
     7     2    53 1   
     8     3     9 1   
     9     4     7 1   
    10     7     8 1   
    11     7    54 1   
    12     7    55 1   
    13     8    56 1   
    14     8    57 1   
    15     9    10 1   
    16     9    58 1   
    17     9    59 1   
    18    10    11 1   
    19    10    32 1   
    20    10    60 1   
    21    11    12 1   
    22    11    61 1   
    23    11    62 1   
    24    12    14 1   
    25    13    14 2   
    26    14    15 1   
    27    15    16 1   
    28    15    63 1   
    29    15    64 1   
    30    16    17 1   
    31    16    65 1   
    32    16    66 1   
    33    17    18 1   
    34    17    67 1   
    35    17    68 1   
    36    18    19 1   
    37    18    69 1   
    38    18    70 1   
    39    19    20 1   
    40    19    71 1   
    41    19    72 1   
    42    20    21 1   
    43    20    73 1   
    44    20    74 1   
    45    21    22 1   
    46    21    75 1   
    47    21    76 1   
    48    22    23 1   
    49    22    77 1   
    50    22    78 1   
    51    23    24 1   
    52    23    79 1   
    53    23    80 1   
    54    24    25 1   
    55    24    81 1   
    56    24    82 1   
    57    25    26 1   
    58    25    83 1   
    59    25    84 1   
    60    26    27 1   
    61    26    85 1   
    62    26    86 1   
    63    27    28 1   
    64    27    87 1   
    65    27    88 1   
    66    28    29 1   
    67    28    89 1   
    68    28    90 1   
    69    29    30 1   
    70    29    91 1   
    71    29    92 1   
    72    30    31 1   
    73    30    93 1   
    74    30    94 1   
    75    31    95 1   
    76    31    96 1   
    77    31    97 1   
    78    32    34 1   
    79    33    34 2   
    80    34    35 1   
    81    35    36 1   
    82    35    98 1   
    83    35    99 1   
    84    36    37 1   
    85    36   100 1   
    86    36   101 1   
    87    37    38 1   
    88    37   102 1   
    89    37   103 1   
    90    38    39 1   
    91    38   104 1   
    92    38   105 1   
    93    39    40 1   
    94    39   106 1   
    95    39   107 1   
    96    40    41 1   
    97    40   108 1   
    98    40   109 1   
    99    41    42 1   
   100    41   110 1   
   101    41   111 1   
   102    42    43 1   
   103    42   112 1   
   104    42   113 1   
   105    43    44 1   
   106    43   114 1   
   107    43   115 1   
   108    44    45 1   
   109    44   116 1   
   110    44   117 1   
   111    45    46 1   
   112    45   118 1   
   113    45   119 1   
   114    46    47 1   
   115    46   120 1   
   116    46   121 1   
   117    47    48 1   
   118    47   122 1   
   119    47   123 1   
   120    48    49 1   
   121    48   124 1   
   122    48   125 1   
   123    49    50 1   
   124    49   126 1   
   125    49   127 1   
   126    50    51 1   
   127    50   128 1   
   128    50   129 1   
   129    51   130 1   
   130    51   131 1   
   131    51   132 1   
@<TRIPOS>SUBSTRUCTURE
     1 PEH         1 TEMP              0 ****  ****    0 ROOT
