@<TRIPOS>MOLECULE
PEH
  132   131     1     0     0
SMALL
bcc


@<TRIPOS>ATOM
      1 P           -5.1790    -0.8790     1.8030 p5         1 PEH       1.394800
      2 N           -0.8630    -1.4360     2.5810 n8         1 PEH      -0.892800
      3 O11         -4.9330    -0.3840     0.2580 os         1 PEH      -0.546200
      4 O12         -3.6510    -1.4430     1.9560 os         1 PEH      -0.573200
      5 O13         -6.1550    -2.0190     1.8150 o          1 PEH      -0.831000
      6 O14         -5.4220     0.2860     2.7160 o          1 PEH      -0.831000
      7 C11         -3.1880    -1.8170     3.2440 c3         1 PEH       0.196400
      8 C12         -1.8060    -2.4110     3.1020 c3         1 PEH       0.148800
      9 C1          -5.9670     0.3040    -0.4040 c3         1 PEH       0.194400
     10 C2          -5.5320     1.6900    -0.8530 c3         1 PEH       0.128100
     11 C3          -5.2560     2.6690     0.2660 c3         1 PEH       0.151400
     12 O31         -4.0770     2.2880     0.9580 os         1 PEH      -0.394900
     13 O32         -4.7100     3.4000     2.7870 o          1 PEH      -0.562000
     14 C31         -3.9450     2.6530     2.2280 c          1 PEH       0.685100
     15 C32         -2.6830     2.1050     2.8300 c3         1 PEH      -0.120400
     16 C33         -2.7380     1.9810     4.3450 c3         1 PEH      -0.066400
     17 C34         -1.4100     1.5040     4.9200 c3         1 PEH      -0.084400
     18 C35         -1.4470     1.3200     6.4310 c3         1 PEH      -0.071400
     19 C36         -0.1190     0.8440     7.0060 c3         1 PEH      -0.074400
     20 C37         -0.1150     0.7520     8.5270 c3         1 PEH      -0.074400
     21 C38          1.2130     0.2690     9.0970 c3         1 PEH      -0.074400
     22 C39          1.2540     0.2710    10.6200 c3         1 PEH      -0.074400
     23 C3A          2.5790    -0.2220    11.1870 c3         1 PEH      -0.074400
     24 C3B          2.6410    -0.1710    12.7080 c3         1 PEH      -0.074400
     25 C3C          3.9660    -0.6670    13.2740 c3         1 PEH      -0.074400
     26 C3D          4.0360    -0.5950    14.7940 c3         1 PEH      -0.074400
     27 C3E          5.3620    -1.0910    15.3590 c3         1 PEH      -0.074400
     28 C3F          5.4390    -1.0080    16.8790 c3         1 PEH      -0.074400
     29 C3G          6.7650    -1.5030    17.4410 c3         1 PEH      -0.075400
     30 C3H          6.8500    -1.4130    18.9600 c3         1 PEH      -0.075400
     31 C3I          8.1800    -1.9110    19.5080 c3         1 PEH      -0.088100
     32 O21         -4.3470     1.6110    -1.6530 os         1 PEH      -0.392900
     33 O22         -5.4970     1.2690    -3.5410 o          1 PEH      -0.566000
     34 C21         -4.4470     1.3680    -2.9570 c          1 PEH       0.650100
     35 C22         -3.0880     1.2040    -3.5810 c3         1 PEH      -0.142400
     36 C23         -3.0930     1.2330    -5.1010 c3         1 PEH      -0.066400
     37 C24         -1.7110     0.9340    -5.6700 c3         1 PEH      -0.077400
     38 C25         -1.6590     0.9970    -7.1910 c3         1 PEH      -0.073400
     39 C26         -0.3010     0.5930    -7.7530 c3         1 PEH      -0.075400
     40 C27         -0.2220     0.6710    -9.2720 c3         1 PEH      -0.074400
     41 C28          1.1250     0.2190    -9.8230 c3         1 PEH      -0.074400
     42 C29          1.2160     0.2980   -11.3420 c3         1 PEH      -0.074400
     43 C2A          2.5590    -0.1750   -11.8870 c3         1 PEH      -0.074400
     44 C2B          2.6570    -0.0970   -13.4050 c3         1 PEH      -0.074400
     45 C2C          3.9970    -0.5800   -13.9460 c3         1 PEH      -0.074400
     46 C2D          4.0980    -0.5020   -15.4640 c3         1 PEH      -0.074400
     47 C2E          5.4370    -0.9900   -16.0040 c3         1 PEH      -0.074400
     48 C2F          5.5400    -0.9110   -17.5220 c3         1 PEH      -0.074400
     49 C2G          6.8790    -1.4000   -18.0610 c3         1 PEH      -0.075400
     50 C2H          6.9860    -1.3160   -19.5790 c3         1 PEH      -0.075400
     51 C2I          8.3280    -1.8080   -20.1040 c3         1 PEH      -0.088100
     52 HN1          0.0480    -1.8650     2.4850 hn         1 PEH       0.336800
     53 HN2         -1.1420    -1.1650     1.6470 hn         1 PEH       0.336800
     54 H111        -3.1510    -0.9490     3.9090 h1         1 PEH       0.027200
     55 H112        -3.8520    -2.5620     3.7000 h1         1 PEH       0.027200
     56 H121        -1.4780    -2.7170     4.0980 h1         1 PEH       0.016200
     57 H122        -1.8740    -3.3290     2.5000 h1         1 PEH       0.016200
     58 H11         -6.8650     0.4300     0.2120 h1         1 PEH       0.032700
     59 H12         -6.2760    -0.2750    -1.2800 h1         1 PEH       0.032700
     60 H2          -6.3580     2.1130    -1.4330 h1         1 PEH       0.049700
     61 H31         -6.1220     2.6820     0.9300 h1         1 PEH       0.049700
     62 H32         -5.1340     3.6770    -0.1420 h1         1 PEH       0.049700
     63 H321        -1.8710     2.7850     2.5440 hc         1 PEH       0.065200
     64 H322        -2.4470     1.1410     2.3770 hc         1 PEH       0.065200
     65 H331        -3.5330     1.2780     4.6090 hc         1 PEH       0.060200
     66 H332        -3.0070     2.9410     4.7930 hc         1 PEH       0.060200
     67 H341        -0.6280     2.2290     4.6670 hc         1 PEH       0.043200
     68 H342        -1.1230     0.5640     4.4350 hc         1 PEH       0.043200
     69 H351        -2.2350     0.6050     6.6940 hc         1 PEH       0.035700
     70 H352        -1.7280     2.2670     6.9070 hc         1 PEH       0.035700
     71 H361         0.6770     1.5260     6.6890 hc         1 PEH       0.035200
     72 H362         0.1320    -0.1330     6.5780 hc         1 PEH       0.035200
     73 H371        -0.9180     0.0830     8.8580 hc         1 PEH       0.035700
     74 H372        -0.3510     1.7370     8.9460 hc         1 PEH       0.035700
     75 H381         2.0220     0.9030     8.7150 hc         1 PEH       0.035200
     76 H382         1.4210    -0.7410     8.7260 hc         1 PEH       0.035200
     77 H391         0.4390    -0.3500    11.0090 hc         1 PEH       0.036200
     78 H392         1.0600     1.2860    10.9830 hc         1 PEH       0.036200
     79 H3A1         3.3960     0.3800    10.7720 hc         1 PEH       0.035700
     80 H3A2         2.7600    -1.2480    10.8490 hc         1 PEH       0.035700
     81 H3B1         1.8210    -0.7660    13.1270 hc         1 PEH       0.036700
     82 H3B2         2.4670     0.8590    13.0420 hc         1 PEH       0.036700
     83 H3C1         4.7850    -0.0800    12.8450 hc         1 PEH       0.036200
     84 H3C2         4.1340    -1.7000    12.9510 hc         1 PEH       0.036200
     85 H3D1         3.2160    -1.1790    15.2250 hc         1 PEH       0.037200
     86 H3D2         3.8700     0.4400    15.1160 hc         1 PEH       0.037200
     87 H3E1         6.1820    -0.5090    14.9230 hc         1 PEH       0.036700
     88 H3E2         5.5250    -2.1270    15.0430 hc         1 PEH       0.036700
     89 H3F1         4.6190    -1.5890    17.3160 hc         1 PEH       0.036700
     90 H3F2         5.2760     0.0280    17.1940 hc         1 PEH       0.036700
     91 H3G1         7.5850    -0.9260    16.9980 hc         1 PEH       0.036700
     92 H3G2         6.9270    -2.5420    17.1310 hc         1 PEH       0.036700
     93 H3H1         6.0310    -1.9880    19.4030 hc         1 PEH       0.036200
     94 H3H2         6.6910    -0.3750    19.2700 hc         1 PEH       0.036200
     95 H3I1         8.2280    -1.8180    20.5940 hc         1 PEH       0.030033
     96 H3I2         8.3390    -2.9620    19.2600 hc         1 PEH       0.030033
     97 H3I3         9.0140    -1.3450    19.0900 hc         1 PEH       0.030033
     98 H221        -2.4160     1.9670    -3.1810 hc         1 PEH       0.073700
     99 H222        -2.6880     0.2470    -3.2250 hc         1 PEH       0.073700
    100 H231        -3.8070     0.5010    -5.4870 hc         1 PEH       0.049200
    101 H232        -3.4330     2.2120    -5.4510 hc         1 PEH       0.049200
    102 H241        -0.9810     1.6370    -5.2550 hc         1 PEH       0.037700
    103 H242        -1.3950    -0.0610    -5.3390 hc         1 PEH       0.037700
    104 H251        -2.4320     0.3430    -7.6100 hc         1 PEH       0.037700
    105 H252        -1.9070     2.0110    -7.5230 hc         1 PEH       0.037700
    106 H261         0.4770     1.2290    -7.3170 hc         1 PEH       0.036700
    107 H262        -0.0710    -0.4290    -7.4310 hc         1 PEH       0.036700
    108 H271        -1.0180     0.0580    -9.7100 hc         1 PEH       0.036700
    109 H272        -0.4220     1.6990    -9.5950 hc         1 PEH       0.036700
    110 H281         1.9210     0.8270    -9.3800 hc         1 PEH       0.037200
    111 H282         1.3170    -0.8110    -9.5020 hc         1 PEH       0.037200
    112 H291         0.4130    -0.3010   -11.7860 hc         1 PEH       0.036200
    113 H292         1.0370     1.3300   -11.6640 hc         1 PEH       0.036200
    114 H2A1         3.3620     0.4210   -11.4400 hc         1 PEH       0.037200
    115 H2A2         2.7360    -1.2080   -11.5650 hc         1 PEH       0.037200
    116 H2B1         1.8510    -0.6900   -13.8510 hc         1 PEH       0.036700
    117 H2B2         2.4860     0.9360   -13.7270 hc         1 PEH       0.036700
    118 H2C1         4.8040     0.0110   -13.4980 hc         1 PEH       0.037200
    119 H2C2         4.1670    -1.6130   -13.6240 hc         1 PEH       0.037200
    120 H2D1         3.2900    -1.0920   -15.9120 hc         1 PEH       0.036700
    121 H2D2         3.9320     0.5320   -15.7870 hc         1 PEH       0.036700
    122 H2E1         6.2450    -0.4010   -15.5550 hc         1 PEH       0.037200
    123 H2E2         5.6030    -2.0240   -15.6820 hc         1 PEH       0.037200
    124 H2F1         4.7310    -1.4980   -17.9710 hc         1 PEH       0.036700
    125 H2F2         5.3750     0.1240   -17.8440 hc         1 PEH       0.036700
    126 H2G1         7.6880    -0.8150   -17.6080 hc         1 PEH       0.036700
    127 H2G2         7.0420    -2.4360   -17.7440 hc         1 PEH       0.036700
    128 H2H1         6.1780    -1.8990   -20.0310 hc         1 PEH       0.036200
    129 H2H2         6.8260    -0.2800   -19.8960 hc         1 PEH       0.036200
    130 H2I1         8.3920    -1.7200   -21.1900 hc         1 PEH       0.030700
    131 H2I2         9.1530    -1.2350   -19.6770 hc         1 PEH       0.030700
    132 H2I3         8.4900    -2.8570   -19.8490 hc         1 PEH       0.030700
@<TRIPOS>BOND
     1     1     3 1   
     2     1     4 1   
     3     1     5 1   
     4     1     6 1   
     5     2     8 1   
     6     2    52 1   
     7     2    53 1   
     8     3     9 1   
     9     4     7 1   
    10     7     8 1   
    11     7    54 1   
    12     7    55 1   
    13     8    56 1   
    14     8    57 1   
    15     9    10 1   
    16     9    58 1   
    17     9    59 1   
    18    10    11 1   
    19    10    32 1   
    20    10    60 1   
    21    11    12 1   
    22    11    61 1   
    23    11    62 1   
    24    12    14 1   
    25    13    14 2   
    26    14    15 1   
    27    15    16 1   
    28    15    63 1   
    29    15    64 1   
    30    16    17 1   
    31    16    65 1   
    32    16    66 1   
    33    17    18 1   
    34    17    67 1   
    35    17    68 1   
    36    18    19 1   
    37    18    69 1   
    38    18    70 1   
    39    19    20 1   
    40    19    71 1   
    41    19    72 1   
    42    20    21 1   
    43    20    73 1   
    44    20    74 1   
    45    21    22 1   
    46    21    75 1   
    47    21    76 1   
    48    22    23 1   
    49    22    77 1   
    50    22    78 1   
    51    23    24 1   
    52    23    79 1   
    53    23    80 1   
    54    24    25 1   
    55    24    81 1   
    56    24    82 1   
    57    25    26 1   
    58    25    83 1   
    59    25    84 1   
    60    26    27 1   
    61    26    85 1   
    62    26    86 1   
    63    27    28 1   
    64    27    87 1   
    65    27    88 1   
    66    28    29 1   
    67    28    89 1   
    68    28    90 1   
    69    29    30 1   
    70    29    91 1   
    71    29    92 1   
    72    30    31 1   
    73    30    93 1   
    74    30    94 1   
    75    31    95 1   
    76    31    96 1   
    77    31    97 1   
    78    32    34 1   
    79    33    34 2   
    80    34    35 1   
    81    35    36 1   
    82    35    98 1   
    83    35    99 1   
    84    36    37 1   
    85    36   100 1   
    86    36   101 1   
    87    37    38 1   
    88    37   102 1   
    89    37   103 1   
    90    38    39 1   
    91    38   104 1   
    92    38   105 1   
    93    39    40 1   
    94    39   106 1   
    95    39   107 1   
    96    40    41 1   
    97    40   108 1   
    98    40   109 1   
    99    41    42 1   
   100    41   110 1   
   101    41   111 1   
   102    42    43 1   
   103    42   112 1   
   104    42   113 1   
   105    43    44 1   
   106    43   114 1   
   107    43   115 1   
   108    44    45 1   
   109    44   116 1   
   110    44   117 1   
   111    45    46 1   
   112    45   118 1   
   113    45   119 1   
   114    46    47 1   
   115    46   120 1   
   116    46   121 1   
   117    47    48 1   
   118    47   122 1   
   119    47   123 1   
   120    48    49 1   
   121    48   124 1   
   122    48   125 1   
   123    49    50 1   
   124    49   126 1   
   125    49   127 1   
   126    50    51 1   
   127    50   128 1   
   128    50   129 1   
   129    51   130 1   
   130    51   131 1   
   131    51   132 1   
@<TRIPOS>SUBSTRUCTURE
     1 PEH         1 TEMP              0 ****  ****    0 ROOT
