@<TRIPOS>MOLECULE
PEI
   16    15     1     0     0
SMALL
No Charge or Current Charge


@<TRIPOS>ATOM
      1 C1          -0.2960     0.1780     3.4590 c3         1 PEI      -0.084100
      2 C2           0.6070    -0.0750     2.2370 c3         1 PEI      -0.081400
      3 C3          -0.1410     0.0610     0.8920 c3         1 PEI      -0.055400
      4 C4           0.7640    -0.1930    -0.3380 c3         1 PEI      -0.203400
      5 C5          -0.0480    -0.0410    -1.6370 c          1 PEI       0.716000
      6 O1          -0.1240     1.0680    -2.1440 o          1 PEI      -0.745000
      7 O2          -0.6210    -1.0260    -2.0790 o          1 PEI      -0.745000
      8 H11          0.2780     0.0710     4.3870 hc         1 PEI       0.017033
      9 H12         -0.7150     1.1910     3.4300 hc         1 PEI       0.017033
     10 H13         -1.1250    -0.5400     3.4840 hc         1 PEI       0.017033
     11 H21          1.4440     0.6340     2.2610 hc         1 PEI       0.022700
     12 H22          1.0370    -1.0810     2.3150 hc         1 PEI       0.022700
     13 H31         -0.9800    -0.6470     0.8750 hc         1 PEI       0.037700
     14 H32         -0.5730     1.0670     0.8210 hc         1 PEI       0.037700
     15 H41          1.5560     0.5660    -0.2890 hc         1 PEI       0.013700
     16 H42          1.1320    -1.2210    -0.2330 hc         1 PEI       0.013700
@<TRIPOS>BOND
     1     1     2 1   
     2     1     8 1   
     3     1     9 1   
     4     1    10 1   
     5     2     3 1   
     6     2    11 1   
     7     2    12 1   
     8     3     4 1   
     9     3    13 1   
    10     3    14 1   
    11     4     5 1   
    12     4    15 1   
    13     4    16 1   
    14     5     6 1   
    15     5     7 1   
@<TRIPOS>SUBSTRUCTURE
     1 PEI         1 TEMP              0 ****  ****    0 ROOT
