@<TRIPOS>MOLECULE
PEI
   16    15     1     0     0
SMALL
bcc


@<TRIPOS>ATOM
      1 C1          -0.2910     0.0140     3.4620 c3         1 PEI      -0.084100
      2 C2           0.6040    -0.0070     2.2300 c3         1 PEI      -0.081400
      3 C3          -0.1880     0.0050     0.9280 c3         1 PEI      -0.055400
      4 C4           0.6990    -0.0030    -0.3060 c3         1 PEI      -0.203400
      5 C5          -0.0300    -0.0000    -1.6610 c          1 PEI       0.926600
      6 O1           0.6810     0.2030    -2.6680 o          1 PEI      -0.850300
      7 O2          -1.2590    -0.2140    -1.6620 o          1 PEI      -0.850300
      8 H11          0.2880     0.0020     4.3860 hc         1 PEI       0.017033
      9 H12         -0.9160     0.9100     3.4770 hc         1 PEI       0.017033
     10 H13         -0.9570    -0.8510     3.4780 hc         1 PEI       0.017033
     11 H21          1.2810     0.8530     2.2550 hc         1 PEI       0.022700
     12 H22          1.2450    -0.8940     2.2580 hc         1 PEI       0.022700
     13 H31         -0.8600    -0.8580     0.9070 hc         1 PEI       0.037700
     14 H32         -0.8360     0.8880     0.9120 hc         1 PEI       0.037700
     15 H41          1.3850     0.8510    -0.2760 hc         1 PEI       0.013700
     16 H42          1.3500    -0.8870    -0.2790 hc         1 PEI       0.013700
@<TRIPOS>BOND
     1     1     2 1   
     2     1     8 1   
     3     1     9 1   
     4     1    10 1   
     5     2     3 1   
     6     2    11 1   
     7     2    12 1   
     8     3     4 1   
     9     3    13 1   
    10     3    14 1   
    11     4     5 1   
    12     4    15 1   
    13     4    16 1   
    14     5     6 1   
    15     5     7 1   
@<TRIPOS>SUBSTRUCTURE
     1 PEI         1 TEMP              0 ****  ****    0 ROOT
