@<TRIPOS>MOLECULE
PEJ
    5     4     1     0     0
SMALL
bcc


@<TRIPOS>ATOM
      1 I           -0.0020    -0.0280    -0.0220 i          1 PEJ       1.542000
      2 O1           0.0540    -1.5180    -1.0060 o          1 PEJ      -0.635500
      3 O2          -0.0270     1.4010    -1.0950 o          1 PEJ      -0.635500
      4 O3          -1.4770    -0.0380     0.9860 o          1 PEJ      -0.635500
      5 O4           1.4430     0.0450     1.0270 o          1 PEJ      -0.635500
@<TRIPOS>BOND
     1     1     2 1   
     2     1     3 1   
     3     1     4 1   
     4     1     5 1   
@<TRIPOS>SUBSTRUCTURE
     1 PEJ         1 TEMP              0 ****  ****    0 ROOT
