@<TRIPOS>MOLECULE
PEJ
    5     4     1     0     0
SMALL
No Charge or Current Charge


@<TRIPOS>ATOM
      1 I            0.0000     0.0000     0.0000 i          1 PEJ       1.542000
      2 O1           0.0000     0.0010     0.0000 o          1 PEJ      -0.635500
      3 O2           0.0000     0.0000     0.0000 o          1 PEJ      -0.635500
      4 O3           0.0000     0.0000     0.0000 o          1 PEJ      -0.635500
      5 O4           0.0000     0.0000     0.0000 o          1 PEJ      -0.635500
@<TRIPOS>BOND
     1     1     2 1   
     2     1     3 1   
     3     1     4 1   
     4     1     5 1   
@<TRIPOS>SUBSTRUCTURE
     1 PEJ         1 TEMP              0 ****  ****    0 ROOT
