@<TRIPOS>MOLECULE
PEK
  130   129     1     0     0
SMALL
bcc


@<TRIPOS>ATOM
      1 P           -5.8520     0.4790     1.8120 p5         1 PEK       1.390800
      2 N           -2.7500    -1.9560     3.9130 n8         1 PEK      -0.894800
      3 C01         -3.8530     2.9000    -0.4710 c3         1 PEK       0.152400
      4 C02         -4.6590     1.9890    -1.3700 c3         1 PEK       0.128100
      5 C03         -5.8000     1.2530    -0.6880 c3         1 PEK       0.193400
      6 C04         -5.0650    -1.1870     3.6800 c3         1 PEK       0.192400
      7 C05         -4.1450    -2.3600     3.9250 c3         1 PEK       0.150800
      8 O01         -3.7450     1.0670    -1.9770 os         1 PEK      -0.392900
      9 O04         -2.9270     3.8670     1.8460 o          1 PEK      -0.560000
     10 O11         -5.3430     0.3150     0.2580 os         1 PEK      -0.543200
     11 O12         -4.8760    -0.7210     2.3530 os         1 PEK      -0.574200
     12 O13         -5.4410     1.8100     2.3650 o          1 PEK      -0.829000
     13 O14         -7.2880     0.0560     1.9210 o          1 PEK      -0.829000
     14 C1          -3.9890     0.6260    -3.2090 c          1 PEK       0.649100
     15 C2          -2.9490    -0.3670    -3.6490 c3         1 PEK      -0.143400
     16 C3          -2.9760    -0.6530    -5.1420 c3         1 PEK      -0.064400
     17 C4          -1.9240    -1.6910    -5.5360 c3         1 PEK      -0.048200
     18 C5          -1.9870    -2.0090    -6.9970 c2         1 PEK      -0.154200
     19 C6          -1.0990    -1.6920    -7.9370 c2         1 PEK      -0.174200
     20 C7           0.2050    -0.9690    -7.7580 c3         1 PEK      -0.012000
     21 C8           1.3600    -1.8750    -8.0780 c2         1 PEK      -0.153200
     22 C9           2.1880    -1.7950    -9.1180 c2         1 PEK      -0.175200
     23 C10          2.1860    -0.7580   -10.2030 c3         1 PEK      -0.012000
     24 C11          3.4370     0.0710   -10.1630 c2         1 PEK      -0.156200
     25 C12          4.3160     0.2530   -11.1480 c2         1 PEK      -0.173200
     26 C13          4.2470    -0.2930   -12.5450 c3         1 PEK      -0.011000
     27 C14          3.8660     0.7950   -13.5080 c2         1 PEK      -0.157200
     28 C15          4.5920     1.2890   -14.5100 c2         1 PEK      -0.172200
     29 C16          5.9520     0.8610   -14.9620 c3         1 PEK      -0.041200
     30 C17          5.9410     0.3580   -16.4070 c3         1 PEK      -0.073400
     31 C18          7.3210    -0.0480   -16.9050 c3         1 PEK      -0.076400
     32 C19          7.3180    -0.5330   -18.3500 c3         1 PEK      -0.075400
     33 C20          8.6980    -0.9540   -18.8340 c3         1 PEK      -0.088100
     34 C21         -2.7570     2.6970     1.6060 c          1 PEK       0.680100
     35 C22         -2.0790     1.7140     2.5170 c3         1 PEK      -0.129400
     36 C23         -1.7560     2.2720     3.8920 c3         1 PEK      -0.061400
     37 C24         -1.0370     1.2460     4.7610 c3         1 PEK      -0.084400
     38 C25         -0.7210     1.7660     6.1570 c3         1 PEK      -0.070400
     39 C26         -0.0020     0.7420     7.0270 c3         1 PEK      -0.075400
     40 C27          0.3350     1.2610     8.4190 c3         1 PEK      -0.074400
     41 C28          1.0540     0.2340     9.2860 c3         1 PEK      -0.074400
     42 C29          1.4030     0.7530    10.6750 c3         1 PEK      -0.074400
     43 C30          2.1230    -0.2760    11.5370 c3         1 PEK      -0.074400
     44 C31          2.4810     0.2400    12.9250 c3         1 PEK      -0.074400
     45 C32          3.2020    -0.7920    13.7830 c3         1 PEK      -0.074400
     46 C33          3.5650    -0.2790    15.1710 c3         1 PEK      -0.074400
     47 C34          4.2880    -1.3150    16.0240 c3         1 PEK      -0.074400
     48 C35          4.6540    -0.8050    17.4120 c3         1 PEK      -0.074400
     49 C36          5.3830    -1.8400    18.2610 c3         1 PEK      -0.075400
     50 C37          5.7500    -1.3320    19.6500 c3         1 PEK      -0.075400
     51 C38          6.4900    -2.3690    20.4840 c3         1 PEK      -0.088100
     52 HN1         -2.1600    -2.7580     4.0940 hn         1 PEK       0.334800
     53 HN2         -2.4950    -1.6270     2.9910 hn         1 PEK       0.334800
     54 H011        -4.5430     3.5750     0.0360 h1         1 PEK       0.050200
     55 H012        -3.1730     3.5090    -1.0740 h1         1 PEK       0.050200
     56 H02         -5.1110     2.6320    -2.1310 h1         1 PEK       0.050700
     57 H031        -6.4550     2.0160    -0.2540 h1         1 PEK       0.033200
     58 H032        -6.3930     0.7330    -1.4450 h1         1 PEK       0.033200
     59 H041        -4.8460    -0.3940     4.4040 h1         1 PEK       0.029700
     60 H042        -6.1020    -1.5040     3.8330 h1         1 PEK       0.029700
     61 H051        -4.3820    -2.7550     4.9160 h1         1 PEK       0.017700
     62 H052        -4.3900    -3.1570     3.2070 h1         1 PEK       0.017700
     63 H21         -1.9620    -0.0150    -3.3400 hc         1 PEK       0.073200
     64 H22         -3.1210    -1.2910    -3.0840 hc         1 PEK       0.073200
     65 H31         -3.9660    -1.0080    -5.4380 hc         1 PEK       0.052200
     66 H32         -2.7950     0.2690    -5.7000 hc         1 PEK       0.052200
     67 H41         -0.9330    -1.3370    -5.2470 hc         1 PEK       0.044700
     68 H42         -2.1020    -2.6090    -4.9650 hc         1 PEK       0.044700
     69 H5          -2.8850    -2.5340    -7.3140 ha         1 PEK       0.117000
     70 H6          -1.3140    -1.9920    -8.9590 ha         1 PEK       0.113000
     71 H71          0.2130    -0.0870    -8.4020 hc         1 PEK       0.052200
     72 H72          0.3090    -0.6040    -6.7330 hc         1 PEK       0.052200
     73 H8           1.5000    -2.6960    -7.3800 ha         1 PEK       0.119000
     74 H9           2.9690    -2.5450    -9.2030 ha         1 PEK       0.116000
     75 H101         2.0850    -1.2520   -11.1720 hc         1 PEK       0.051200
     76 H102         1.3180    -0.1010   -10.1040 hc         1 PEK       0.051200
     77 H11          3.6290     0.5660    -9.2150 ha         1 PEK       0.121000
     78 H12          5.1660     0.9000   -10.9520 ha         1 PEK       0.117000
     79 H131         5.2140    -0.7260   -12.8100 hc         1 PEK       0.049700
     80 H132         3.5160    -1.1020   -12.6120 hc         1 PEK       0.049700
     81 H14          2.8840     1.2270   -13.3330 ha         1 PEK       0.119000
     82 H15          4.1470     2.0870   -15.1000 ha         1 PEK       0.114000
     83 H161         6.6360     1.7130   -14.8940 hc         1 PEK       0.043700
     84 H162         6.3630     0.0860   -14.3120 hc         1 PEK       0.043700
     85 H171         5.2580    -0.4940   -16.4850 hc         1 PEK       0.038700
     86 H172         5.5320     1.1370   -17.0590 hc         1 PEK       0.038700
     87 H181         8.0070     0.8010   -16.8100 hc         1 PEK       0.037200
     88 H182         7.7240    -0.8360   -16.2580 hc         1 PEK       0.037200
     89 H191         6.6230    -1.3730   -18.4480 hc         1 PEK       0.036200
     90 H192         6.9260     0.2600   -18.9950 hc         1 PEK       0.036200
     91 H201         8.6750    -1.2930   -19.8710 hc         1 PEK       0.030700
     92 H202         9.4070    -0.1270   -18.7720 hc         1 PEK       0.030700
     93 H203         9.0940    -1.7710   -18.2280 hc         1 PEK       0.030700
     94 H221        -1.1640     1.3690     2.0210 hc         1 PEK       0.073200
     95 H222        -2.7220     0.8370     2.6060 hc         1 PEK       0.073200
     96 H231        -2.6820     2.5820     4.3840 hc         1 PEK       0.050700
     97 H232        -1.1370     3.1690     3.8010 hc         1 PEK       0.050700
     98 H241        -0.1060     0.9460     4.2670 hc         1 PEK       0.044700
     99 H242        -1.6460     0.3380     4.8280 hc         1 PEK       0.044700
    100 H251        -1.6500     2.0720     6.6510 hc         1 PEK       0.034700
    101 H252        -0.1070     2.6700     6.0810 hc         1 PEK       0.034700
    102 H261         0.9190     0.4250     6.5260 hc         1 PEK       0.036700
    103 H262        -0.6220    -0.1570     7.1140 hc         1 PEK       0.036700
    104 H271        -0.5860     1.5790     8.9220 hc         1 PEK       0.035200
    105 H272         0.9560     2.1590     8.3310 hc         1 PEK       0.035200
    106 H281         1.9700    -0.0880     8.7790 hc         1 PEK       0.035700
    107 H282         0.4300    -0.6610     9.3790 hc         1 PEK       0.035700
    108 H291         0.4880     1.0760    11.1840 hc         1 PEK       0.036200
    109 H292         2.0280     1.6480    10.5820 hc         1 PEK       0.036200
    110 H301         3.0360    -0.6020    11.0260 hc         1 PEK       0.036700
    111 H302         1.4960    -1.1700    11.6330 hc         1 PEK       0.036700
    112 H311         1.5690     0.5660    13.4390 hc         1 PEK       0.036700
    113 H312         3.1090     1.1330    12.8300 hc         1 PEK       0.036700
    114 H321         4.1120    -1.1190    13.2680 hc         1 PEK       0.036200
    115 H322         2.5730    -1.6850    13.8790 hc         1 PEK       0.036200
    116 H331         2.6550     0.0460    15.6880 hc         1 PEK       0.036700
    117 H332         4.1940     0.6130    15.0750 hc         1 PEK       0.036700
    118 H341         5.1970    -1.6400    15.5060 hc         1 PEK       0.036700
    119 H342         3.6590    -2.2070    16.1190 hc         1 PEK       0.036700
    120 H351         3.7460    -0.4830    17.9330 hc         1 PEK       0.036200
    121 H352         5.2800     0.0890    17.3170 hc         1 PEK       0.036200
    122 H361         6.2920    -2.1610    17.7400 hc         1 PEK       0.036700
    123 H362         4.7580    -2.7350    18.3550 hc         1 PEK       0.036700
    124 H371         4.8410    -1.0190    20.1730 hc         1 PEK       0.036200
    125 H372         6.3670    -0.4340    19.5530 hc         1 PEK       0.036200
    126 H381         6.7420    -1.9830    21.4730 hc         1 PEK       0.030367
    127 H382         5.8880    -3.2680    20.6230 hc         1 PEK       0.030367
    128 H383         7.4210    -2.6700    20.0000 hc         1 PEK       0.030367
    129 O03         -3.1070     2.1280     0.4570 os         1 PEK      -0.394900
    130 O02         -4.9340     0.9760    -3.8700 o          1 PEK      -0.564000
@<TRIPOS>BOND
     1     1    10 1   
     2     1    11 1   
     3     1    12 1   
     4     1    13 1   
     5     2     7 1   
     6     2    52 1   
     7     2    53 1   
     8     3     4 1   
     9     3    54 1   
    10     3    55 1   
    11     3   129 1   
    12     4     5 1   
    13     4     8 1   
    14     4    56 1   
    15     5    10 1   
    16     5    57 1   
    17     5    58 1   
    18     6     7 1   
    19     6    11 1   
    20     6    59 1   
    21     6    60 1   
    22     7    61 1   
    23     7    62 1   
    24     8    14 1   
    25     9    34 2   
    26    14    15 1   
    27    14   130 2   
    28    15    16 1   
    29    15    63 1   
    30    15    64 1   
    31    16    17 1   
    32    16    65 1   
    33    16    66 1   
    34    17    18 1   
    35    17    67 1   
    36    17    68 1   
    37    18    19 2   
    38    18    69 1   
    39    19    20 1   
    40    19    70 1   
    41    20    21 1   
    42    20    71 1   
    43    20    72 1   
    44    21    22 2   
    45    21    73 1   
    46    22    23 1   
    47    22    74 1   
    48    23    24 1   
    49    23    75 1   
    50    23    76 1   
    51    24    25 2   
    52    24    77 1   
    53    25    26 1   
    54    25    78 1   
    55    26    27 1   
    56    26    79 1   
    57    26    80 1   
    58    27    28 2   
    59    27    81 1   
    60    28    29 1   
    61    28    82 1   
    62    29    30 1   
    63    29    83 1   
    64    29    84 1   
    65    30    31 1   
    66    30    85 1   
    67    30    86 1   
    68    31    32 1   
    69    31    87 1   
    70    31    88 1   
    71    32    33 1   
    72    32    89 1   
    73    32    90 1   
    74    33    91 1   
    75    33    92 1   
    76    33    93 1   
    77    34    35 1   
    78    34   129 1   
    79    35    36 1   
    80    35    94 1   
    81    35    95 1   
    82    36    37 1   
    83    36    96 1   
    84    36    97 1   
    85    37    38 1   
    86    37    98 1   
    87    37    99 1   
    88    38    39 1   
    89    38   100 1   
    90    38   101 1   
    91    39    40 1   
    92    39   102 1   
    93    39   103 1   
    94    40    41 1   
    95    40   104 1   
    96    40   105 1   
    97    41    42 1   
    98    41   106 1   
    99    41   107 1   
   100    42    43 1   
   101    42   108 1   
   102    42   109 1   
   103    43    44 1   
   104    43   110 1   
   105    43   111 1   
   106    44    45 1   
   107    44   112 1   
   108    44   113 1   
   109    45    46 1   
   110    45   114 1   
   111    45   115 1   
   112    46    47 1   
   113    46   116 1   
   114    46   117 1   
   115    47    48 1   
   116    47   118 1   
   117    47   119 1   
   118    48    49 1   
   119    48   120 1   
   120    48   121 1   
   121    49    50 1   
   122    49   122 1   
   123    49   123 1   
   124    50    51 1   
   125    50   124 1   
   126    50   125 1   
   127    51   126 1   
   128    51   127 1   
   129    51   128 1   
@<TRIPOS>SUBSTRUCTURE
     1 PEK         1 TEMP              0 ****  ****    0 ROOT
