@<TRIPOS>MOLECULE
PEK
  130   129     1     0     0
SMALL
No Charge or Current Charge


@<TRIPOS>ATOM
      1 P           -5.1070     1.3020     1.1330 p5         1 PEK       1.390800
      2 N           -4.0220    -2.0410     0.0420 n8         1 PEK      -1.005200
      3 C01         -3.5060     2.1250    -2.1490 c3         1 PEK       0.175600
      4 C02         -4.7740     1.2970    -2.4960 c3         1 PEK       0.151300
      5 C03         -5.9060     1.2460    -1.4170 c3         1 PEK       0.216600
      6 C04         -3.5940    -0.6690     2.1500 c3         1 PEK       0.215600
      7 C05         -4.3960    -1.8180     1.4580 c3         1 PEK       0.150800
      8 O01         -4.3650    -0.0400    -2.8850 os         1 PEK      -0.416100
      9 O04         -0.9890     2.9690    -1.4450 o          1 PEK      -0.511000
     10 O11         -5.5180     0.5340    -0.2270 os         1 PEK      -0.566400
     11 O12         -3.6970     0.5820     1.4370 os         1 PEK      -0.597400
     12 O13         -4.8920     2.7610     0.9020 o          1 PEK      -0.829000
     13 O14         -6.1000     1.0690     2.2230 o          1 PEK      -0.829000
     14 C1          -5.2160    -0.8170    -3.6280 c          1 PEK       0.600100
     15 C2          -4.6160    -2.1950    -3.9120 c3         1 PEK      -0.143400
     16 C3          -3.9140    -2.2240    -5.2890 c3         1 PEK      -0.064400
     17 C4          -3.2530    -3.5820    -5.6070 c3         1 PEK      -0.048200
     18 C5          -2.5990    -3.5910    -6.9760 c2         1 PEK      -0.204200
     19 C6          -1.3620    -3.1630    -7.2890 c2         1 PEK      -0.224200
     20 C7          -0.3350    -2.5460    -6.3580 c3         1 PEK      -0.012000
     21 C8           0.9920    -3.2720    -6.4730 c2         1 PEK      -0.203200
     22 C9           2.2140    -2.7190    -6.5740 c2         1 PEK      -0.225200
     23 C10          2.5420    -1.2370    -6.5790 c3         1 PEK      -0.012000
     24 C11          3.9780    -0.9900    -6.1540 c2         1 PEK      -0.206200
     25 C12          4.8710    -0.1820    -6.7530 c2         1 PEK      -0.223200
     26 C13          4.6340     0.6760    -7.9810 c3         1 PEK      -0.011000
     27 C14          5.6580     1.7940    -8.0780 c2         1 PEK      -0.207200
     28 C15          6.4670     2.0720    -9.1160 c2         1 PEK      -0.222200
     29 C16          6.5690     1.3150   -10.4270 c3         1 PEK      -0.041200
     30 C17          5.5380     1.8060   -11.4640 c3         1 PEK      -0.073400
     31 C18          5.6130     1.0430   -12.8050 c3         1 PEK      -0.076400
     32 C19          4.5760     1.5360   -13.8390 c3         1 PEK      -0.075400
     33 C20          4.6480     0.7740   -15.1760 c3         1 PEK      -0.088100
     34 C21         -1.4150     1.9210    -0.9740 c          1 PEK       0.631100
     35 C22         -0.6000     1.0280    -0.0330 c3         1 PEK      -0.129400
     36 C23         -0.4410     1.6630     1.3690 c3         1 PEK      -0.061400
     37 C24          0.3030     0.7480     2.3660 c3         1 PEK      -0.084400
     38 C25          0.4210     1.3670     3.7760 c3         1 PEK      -0.070400
     39 C26          1.1520     0.4500     4.7810 c3         1 PEK      -0.075400
     40 C27          1.2610     1.0700     6.1920 c3         1 PEK      -0.074400
     41 C28          1.9870     0.1550     7.2020 c3         1 PEK      -0.074400
     42 C29          2.0910     0.7780     8.6110 c3         1 PEK      -0.074400
     43 C30          2.8120    -0.1360     9.6260 c3         1 PEK      -0.074400
     44 C31          2.9150     0.4900    11.0340 c3         1 PEK      -0.074400
     45 C32          3.6320    -0.4230    12.0520 c3         1 PEK      -0.074400
     46 C33          3.7330     0.2060    13.4590 c3         1 PEK      -0.074400
     47 C34          4.4500    -0.7050    14.4790 c3         1 PEK      -0.074400
     48 C35          4.5490    -0.0750    15.8860 c3         1 PEK      -0.074400
     49 C36          5.2700    -0.9840    16.9060 c3         1 PEK      -0.075400
     50 C37          5.3670    -0.3550    18.3140 c3         1 PEK      -0.075400
     51 C38          6.0890    -1.2600    19.3300 c3         1 PEK      -0.088100
     52 HN1         -4.7060    -2.6740    -0.3830 hn         1 PEK       0.390000
     53 HN2         -4.1840    -1.1460    -0.4430 hn         1 PEK       0.390000
     54 H011        -3.8030     3.0840    -1.7050 h1         1 PEK       0.050200
     55 H012        -2.9790     2.3410    -3.0870 h1         1 PEK       0.050200
     56 H02         -5.2110     1.8030    -3.3660 h1         1 PEK       0.050700
     57 H031        -6.2130     2.2730    -1.1830 h1         1 PEK       0.033200
     58 H032        -6.7900     0.7630    -1.8510 h1         1 PEK       0.033200
     59 H041        -2.5400    -0.9690     2.2150 h1         1 PEK       0.029700
     60 H042        -3.9600    -0.5510     3.1790 h1         1 PEK       0.029700
     61 H051        -4.2300    -2.7540     2.0080 h1         1 PEK       0.017700
     62 H052        -5.4710    -1.5970     1.5000 h1         1 PEK       0.017700
     63 H21         -3.8610    -2.4220    -3.1490 hc         1 PEK       0.073200
     64 H22         -5.4150    -2.9450    -3.9000 hc         1 PEK       0.073200
     65 H31         -4.6450    -1.9880    -6.0730 hc         1 PEK       0.052200
     66 H32         -3.1490    -1.4380    -5.3210 hc         1 PEK       0.052200
     67 H41         -2.5200    -3.8180    -4.8270 hc         1 PEK       0.044700
     68 H42         -4.0110    -4.3740    -5.5560 hc         1 PEK       0.044700
     69 H5          -3.2350    -4.0080    -7.7600 ha         1 PEK       0.167000
     70 H6          -1.0210    -3.2340    -8.3230 ha         1 PEK       0.163000
     71 H71         -0.2230    -1.4850    -6.6080 hc         1 PEK       0.052200
     72 H72         -0.6730    -2.5730    -5.3160 hc         1 PEK       0.052200
     73 H8           0.8950    -4.3600    -6.4760 ha         1 PEK       0.169000
     74 H9           3.0870    -3.3680    -6.6640 ha         1 PEK       0.166000
     75 H101         2.3550    -0.8330    -7.5810 hc         1 PEK       0.051200
     76 H102         1.8700    -0.6980    -5.9000 hc         1 PEK       0.051200
     77 H11          4.2750    -1.5500    -5.2640 ha         1 PEK       0.171000
     78 H12          5.8810    -0.1040    -6.3430 ha         1 PEK       0.167000
     79 H131         4.6480     0.0430    -8.8750 hc         1 PEK       0.049700
     80 H132         3.6300     1.1180    -7.9420 hc         1 PEK       0.049700
     81 H14          5.6920     2.4280    -7.1890 ha         1 PEK       0.169000
     82 H15          7.1500     2.9220    -9.0480 ha         1 PEK       0.164000
     83 H161         7.5800     1.4280   -10.8400 hc         1 PEK       0.043700
     84 H162         6.4320     0.2400   -10.2640 hc         1 PEK       0.043700
     85 H171         4.5290     1.6990   -11.0450 hc         1 PEK       0.038700
     86 H172         5.6950     2.8770   -11.6470 hc         1 PEK       0.038700
     87 H181         6.6210     1.1510   -13.2260 hc         1 PEK       0.037200
     88 H182         5.4550    -0.0270   -12.6200 hc         1 PEK       0.037200
     89 H191         3.5670     1.4290   -13.4220 hc         1 PEK       0.036200
     90 H192         4.7330     2.6050   -14.0300 hc         1 PEK       0.036200
     91 H201         3.8950     1.1570   -15.8750 hc         1 PEK       0.030700
     92 H202         5.6360     0.8910   -15.6380 hc         1 PEK       0.030700
     93 H203         4.4610    -0.2960   -15.0240 hc         1 PEK       0.030700
     94 H221         0.3950     0.8810    -0.4670 hc         1 PEK       0.073200
     95 H222        -1.1040     0.0610     0.0720 hc         1 PEK       0.073200
     96 H231        -1.4320     1.9050     1.7730 hc         1 PEK       0.050700
     97 H232         0.1010     2.6130     1.2760 hc         1 PEK       0.050700
     98 H241         1.3080     0.5340     1.9800 hc         1 PEK       0.044700
     99 H242        -0.2230    -0.2120     2.4390 hc         1 PEK       0.044700
    100 H251        -0.5840     1.5870     4.1570 hc         1 PEK       0.034700
    101 H252         0.9540     2.3230     3.7070 hc         1 PEK       0.034700
    102 H261         2.1590     0.2330     4.4040 hc         1 PEK       0.036700
    103 H262         0.6210    -0.5070     4.8490 hc         1 PEK       0.036700
    104 H271         0.2530     1.2910     6.5660 hc         1 PEK       0.035200
    105 H272         1.7940     2.0270     6.1240 hc         1 PEK       0.035200
    106 H281         2.9950    -0.0640     6.8290 hc         1 PEK       0.035700
    107 H282         1.4540    -0.8010     7.2690 hc         1 PEK       0.035700
    108 H291         1.0830     1.0020     8.9810 hc         1 PEK       0.036200
    109 H292         2.6270     1.7340     8.5440 hc         1 PEK       0.036200
    110 H301         3.8200    -0.3600     9.2570 hc         1 PEK       0.036700
    111 H302         2.2760    -1.0910     9.6950 hc         1 PEK       0.036700
    112 H311         1.9060     0.7170    11.4020 hc         1 PEK       0.036700
    113 H312         3.4520     1.4440    10.9650 hc         1 PEK       0.036700
    114 H321         4.6410    -0.6490    11.6850 hc         1 PEK       0.036200
    115 H322         3.0950    -1.3770    12.1210 hc         1 PEK       0.036200
    116 H331         2.7230     0.4310    13.8260 hc         1 PEK       0.036700
    117 H332         4.2690     1.1600    13.3890 hc         1 PEK       0.036700
    118 H341         5.4600    -0.9300    14.1140 hc         1 PEK       0.036700
    119 H342         3.9140    -1.6600    14.5490 hc         1 PEK       0.036700
    120 H351         3.5380     0.1470    16.2530 hc         1 PEK       0.036200
    121 H352         5.0820     0.8810    15.8160 hc         1 PEK       0.036200
    122 H361         6.2810    -1.2040    16.5400 hc         1 PEK       0.036700
    123 H362         4.7380    -1.9410    16.9760 hc         1 PEK       0.036700
    124 H371         4.3580    -0.1360    18.6850 hc         1 PEK       0.036200
    125 H372         5.8980     0.6030    18.2480 hc         1 PEK       0.036200
    126 H381         6.1320    -0.7730    20.3120 hc         1 PEK       0.030367
    127 H382         5.5610    -2.2150    19.4440 hc         1 PEK       0.030367
    128 H383         7.1150    -1.4680    19.0050 hc         1 PEK       0.030367
    129 O03         -2.6450     1.3900    -1.2570 os         1 PEK      -0.418100
    130 O02         -6.3110    -0.4590    -4.0400 o          1 PEK      -0.515000
@<TRIPOS>BOND
     1     1    10 1   
     2     1    11 1   
     3     1    12 1   
     4     1    13 1   
     5     2     7 1   
     6     2    52 1   
     7     2    53 1   
     8     3     4 1   
     9     3    54 1   
    10     3    55 1   
    11     3   129 1   
    12     4     5 1   
    13     4     8 1   
    14     4    56 1   
    15     5    10 1   
    16     5    57 1   
    17     5    58 1   
    18     6     7 1   
    19     6    11 1   
    20     6    59 1   
    21     6    60 1   
    22     7    61 1   
    23     7    62 1   
    24     8    14 1   
    25     9    34 2   
    26    14    15 1   
    27    14   130 2   
    28    15    16 1   
    29    15    63 1   
    30    15    64 1   
    31    16    17 1   
    32    16    65 1   
    33    16    66 1   
    34    17    18 1   
    35    17    67 1   
    36    17    68 1   
    37    18    19 2   
    38    18    69 1   
    39    19    20 1   
    40    19    70 1   
    41    20    21 1   
    42    20    71 1   
    43    20    72 1   
    44    21    22 2   
    45    21    73 1   
    46    22    23 1   
    47    22    74 1   
    48    23    24 1   
    49    23    75 1   
    50    23    76 1   
    51    24    25 2   
    52    24    77 1   
    53    25    26 1   
    54    25    78 1   
    55    26    27 1   
    56    26    79 1   
    57    26    80 1   
    58    27    28 2   
    59    27    81 1   
    60    28    29 1   
    61    28    82 1   
    62    29    30 1   
    63    29    83 1   
    64    29    84 1   
    65    30    31 1   
    66    30    85 1   
    67    30    86 1   
    68    31    32 1   
    69    31    87 1   
    70    31    88 1   
    71    32    33 1   
    72    32    89 1   
    73    32    90 1   
    74    33    91 1   
    75    33    92 1   
    76    33    93 1   
    77    34    35 1   
    78    34   129 1   
    79    35    36 1   
    80    35    94 1   
    81    35    95 1   
    82    36    37 1   
    83    36    96 1   
    84    36    97 1   
    85    37    38 1   
    86    37    98 1   
    87    37    99 1   
    88    38    39 1   
    89    38   100 1   
    90    38   101 1   
    91    39    40 1   
    92    39   102 1   
    93    39   103 1   
    94    40    41 1   
    95    40   104 1   
    96    40   105 1   
    97    41    42 1   
    98    41   106 1   
    99    41   107 1   
   100    42    43 1   
   101    42   108 1   
   102    42   109 1   
   103    43    44 1   
   104    43   110 1   
   105    43   111 1   
   106    44    45 1   
   107    44   112 1   
   108    44   113 1   
   109    45    46 1   
   110    45   114 1   
   111    45   115 1   
   112    46    47 1   
   113    46   116 1   
   114    46   117 1   
   115    47    48 1   
   116    47   118 1   
   117    47   119 1   
   118    48    49 1   
   119    48   120 1   
   120    48   121 1   
   121    49    50 1   
   122    49   122 1   
   123    49   123 1   
   124    50    51 1   
   125    50   124 1   
   126    50   125 1   
   127    51   126 1   
   128    51   127 1   
   129    51   128 1   
@<TRIPOS>SUBSTRUCTURE
     1 PEK         1 TEMP              0 ****  ****    0 ROOT
