@<TRIPOS>MOLECULE
PEL
   19    19     1     0     0
SMALL
abcg2


@<TRIPOS>ATOM
      1 C1          -0.0340    -0.3730    -0.0650 ca         1 PEL      -0.082300
      2 C2           1.1750    -0.1460    -0.7220 ca         1 PEL      -0.106500
      3 C3           1.2030     0.1800    -2.0710 ca         1 PEL      -0.110000
      4 C4           0.0180     0.2830    -2.7880 ca         1 PEL      -0.110000
      5 C5          -1.1920     0.0590    -2.1460 ca         1 PEL      -0.110000
      6 C6          -1.2150    -0.2650    -0.7950 ca         1 PEL      -0.106500
      7 CA          -0.0560    -0.6910     1.4040 c3         1 PEL      -0.037100
      8 C            0.0960     0.5690     2.2440 c3         1 PEL       0.164600
      9 OXT          0.0810     0.2050     3.6060 oh         1 PEL      -0.664000
     10 H2           2.1050    -0.2320    -0.1720 ha         1 PEL       0.111500
     11 H3           2.1520     0.3510    -2.5640 ha         1 PEL       0.112000
     12 H4           0.0370     0.5310    -3.8420 ha         1 PEL       0.112000
     13 H5          -2.1210     0.1350    -2.6970 ha         1 PEL       0.112000
     14 H6          -2.1640    -0.4420    -0.3020 ha         1 PEL       0.111500
     15 HA1          0.7530    -1.3850     1.6480 hc         1 PEL       0.059700
     16 HA2         -0.9960    -1.1850     1.6650 hc         1 PEL       0.059700
     17 H11         -0.7190     1.2640     2.0020 h1         1 PEL       0.020200
     18 H12          1.0330     1.0730     1.9710 h1         1 PEL       0.020200
     19 HXT          0.2040     1.0000     4.1310 ho         1 PEL       0.443000
@<TRIPOS>BOND
     1     1     2 ar  
     2     1     6 ar  
     3     1     7 1   
     4     2     3 ar  
     5     2    10 1   
     6     3     4 ar  
     7     3    11 1   
     8     4     5 ar  
     9     4    12 1   
    10     5     6 ar  
    11     5    13 1   
    12     6    14 1   
    13     7     8 1   
    14     7    15 1   
    15     7    16 1   
    16     8     9 1   
    17     8    17 1   
    18     8    18 1   
    19     9    19 1   
@<TRIPOS>SUBSTRUCTURE
     1 PEL         1 TEMP              0 ****  ****    0 ROOT
