@<TRIPOS>MOLECULE
PEL
   19    19     1     0     0
SMALL
No Charge or Current Charge


@<TRIPOS>ATOM
      1 C1           0.0160    -0.3610    -0.0800 ca         1 PEL      -0.082300
      2 C2           1.2300    -0.2070    -0.7780 ca         1 PEL      -0.106500
      3 C3           1.2260     0.1080    -2.1480 ca         1 PEL      -0.110000
      4 C4           0.0070     0.2710    -2.8280 ca         1 PEL      -0.110000
      5 C5          -1.2070     0.1200    -2.1370 ca         1 PEL      -0.110000
      6 C6          -1.2020    -0.1940    -0.7660 ca         1 PEL      -0.106500
      7 CA           0.0210    -0.6970     1.4070 c3         1 PEL      -0.037100
      8 C            0.0320     0.5680     2.2870 c3         1 PEL       0.164600
      9 OXT          0.0370     0.2020     3.6720 oh         1 PEL      -0.664000
     10 H2           2.1790    -0.3290    -0.2580 ha         1 PEL       0.111500
     11 H3           2.1660     0.2260    -2.6820 ha         1 PEL       0.112000
     12 H4           0.0030     0.5150    -3.8880 ha         1 PEL       0.112000
     13 H5          -2.1510     0.2480    -2.6620 ha         1 PEL       0.112000
     14 H6          -2.1470    -0.3070    -0.2390 ha         1 PEL       0.111500
     15 HA1          0.8970    -1.3110     1.6520 hc         1 PEL       0.059700
     16 HA2         -0.8580    -1.3020     1.6600 hc         1 PEL       0.059700
     17 H11         -0.8540     1.1750     2.0570 h1         1 PEL       0.020200
     18 H12          0.9220     1.1660     2.0490 h1         1 PEL       0.020200
     19 HXT          0.0430     1.0390     4.1890 ho         1 PEL       0.443000
@<TRIPOS>BOND
     1     1     2 ar  
     2     1     6 ar  
     3     1     7 1   
     4     2     3 ar  
     5     2    10 1   
     6     3     4 ar  
     7     3    11 1   
     8     4     5 ar  
     9     4    12 1   
    10     5     6 ar  
    11     5    13 1   
    12     6    14 1   
    13     7     8 1   
    14     7    15 1   
    15     7    16 1   
    16     8     9 1   
    17     8    17 1   
    18     8    18 1   
    19     9    19 1   
@<TRIPOS>SUBSTRUCTURE
     1 PEL         1 TEMP              0 ****  ****    0 ROOT
