@<TRIPOS>MOLECULE
PEM
   44    45     1     0     0
SMALL
bcc


@<TRIPOS>ATOM
      1 C1           0.8670    -4.2290     8.6060 ca         1 PEM      -0.150600
      2 C2           1.4190    -4.1810     9.8830 ca         1 PEM      -0.082500
      3 C3           1.3770    -3.0170    10.6310 ca         1 PEM      -0.131500
      4 C4           0.7970    -1.8830    10.0820 ca         1 PEM       0.042400
      5 C5           0.2630    -1.8980     8.8030 ca         1 PEM      -0.131500
      6 C6           0.2980    -3.0750     8.0720 ca         1 PEM      -0.082500
      7 CL           0.7500    -0.4200    11.0040 cl         1 PEM      -0.119400
      8 C7           0.9690    -5.5020     7.8260 c          1 PEM       0.682700
      9 O1           1.9150    -6.2610     7.9830 o          1 PEM      -0.612100
     10 N1          -0.0350    -5.7460     6.9720 ns         1 PEM      -0.555900
     11 C8           0.0150    -6.7780     5.9600 c3         1 PEM       0.108000
     12 C9           0.9600    -6.4290     4.8000 c3         1 PEM      -0.039100
     13 C10          0.1610    -2.3510     3.6090 ca         1 PEM       0.210100
     14 C11         -0.6410    -3.4020     3.1520 ca         1 PEM      -0.200500
     15 C12         -0.3600    -4.7120     3.4960 ca         1 PEM      -0.099500
     16 C13          0.7290    -5.0300     4.3070 ca         1 PEM      -0.168300
     17 C14          1.5310    -3.9810     4.7350 ca         1 PEM      -0.099500
     18 C15          1.2680    -2.6590     4.3990 ca         1 PEM      -0.200500
     19 C16          0.3960     0.0650     3.7420 c3         1 PEM       0.011800
     20 C17          0.1400     0.2190     5.2370 c3         1 PEM      -0.076600
     21 C18         -0.3060     1.1960     2.9930 c3         1 PEM      -0.076600
     22 C19          1.9000     0.1180     3.3430 c          1 PEM       0.916600
     23 O3           2.6550     0.7260     4.1260 o          1 PEM      -0.812800
     24 O4           2.1990    -0.4000     2.2550 o          1 PEM      -0.812800
     25 H21          1.8810    -5.0640    10.3060 ha         1 PEM       0.151500
     26 H31          1.7970    -2.9930    11.6270 ha         1 PEM       0.150000
     27 H51         -0.1700    -1.0030     8.3770 ha         1 PEM       0.150000
     28 HC6         -0.0940    -3.0640     7.0620 ha         1 PEM       0.151500
     29 HN1         -0.7900    -5.0840     6.9080 hn         1 PEM       0.317500
     30 HC81        -1.0010    -6.9010     5.5860 h1         1 PEM       0.042200
     31 HC82         0.3080    -7.7280     6.4090 h1         1 PEM       0.042200
     32 HC91         1.9940    -6.5430     5.1300 hc         1 PEM       0.049200
     33 HC92         0.8010    -7.1620     4.0050 hc         1 PEM       0.049200
     34 H11         -1.4970    -3.1790     2.5260 ha         1 PEM       0.150000
     35 H12         -1.0120    -5.5000     3.1370 ha         1 PEM       0.113500
     36 H14          2.3880    -4.1910     5.3660 ha         1 PEM       0.113500
     37 H15          1.9280    -1.8940     4.7810 ha         1 PEM       0.150000
     38 H171         0.4740     1.1980     5.5750 hc         1 PEM       0.027533
     39 H172        -0.9290     0.1450     5.4480 hc         1 PEM       0.027533
     40 H173         0.6540    -0.5250     5.8450 hc         1 PEM       0.027533
     41 H181        -0.1720     1.0990     1.9150 hc         1 PEM       0.027533
     42 H182         0.1040     2.1580     3.3000 hc         1 PEM       0.027533
     43 H183        -1.3770     1.2040     3.2090 hc         1 PEM       0.027533
     44 O2          -0.2320    -1.1210     3.2390 os         1 PEM      -0.319900
@<TRIPOS>BOND
     1     1     2 ar  
     2     1     6 ar  
     3     1     8 1   
     4     2     3 ar  
     5     2    25 1   
     6     3     4 ar  
     7     3    26 1   
     8     4     5 ar  
     9     4     7 1   
    10     5     6 ar  
    11     5    27 1   
    12     6    28 1   
    13     8     9 2   
    14     8    10 1   
    15    10    11 1   
    16    10    29 1   
    17    11    12 1   
    18    11    30 1   
    19    11    31 1   
    20    12    16 1   
    21    12    32 1   
    22    12    33 1   
    23    13    14 ar  
    24    13    18 ar  
    25    13    44 1   
    26    14    15 ar  
    27    14    34 1   
    28    15    16 ar  
    29    15    35 1   
    30    16    17 ar  
    31    17    18 ar  
    32    17    36 1   
    33    18    37 1   
    34    19    20 1   
    35    19    21 1   
    36    19    22 1   
    37    19    44 1   
    38    20    38 1   
    39    20    39 1   
    40    20    40 1   
    41    21    41 1   
    42    21    42 1   
    43    21    43 1   
    44    22    23 1   
    45    22    24 1   
@<TRIPOS>SUBSTRUCTURE
     1 PEM         1 TEMP              0 ****  ****    0 ROOT
