@<TRIPOS>MOLECULE
PEM
   44    45     1     0     0
SMALL
No Charge or Current Charge


@<TRIPOS>ATOM
      1 C1           0.7410    -4.1610     8.4160 ca         1 PEM      -0.150600
      2 C2           1.6500    -3.7670     9.4240 ca         1 PEM      -0.064500
      3 C3           1.5730    -2.4860    10.0000 ca         1 PEM      -0.113500
      4 C4           0.5910    -1.5820     9.5730 ca         1 PEM       0.134000
      5 C5          -0.3160    -1.9530     8.5710 ca         1 PEM      -0.113500
      6 C6          -0.2440    -3.2320     7.9910 ca         1 PEM      -0.064500
      7 Cl           0.5010     0.0230    10.2880 cl         1 PEM      -0.211000
      8 C7           0.8700    -5.5360     7.7920 c          1 PEM       0.615700
      9 O1           1.8340    -6.2610     8.0000 o          1 PEM      -0.612100
     10 N1          -0.1440    -5.9160     6.9410 ns         1 PEM      -0.488900
     11 C8          -0.0330    -6.9810     5.9410 c3         1 PEM       0.108000
     12 C9           0.9100    -6.5820     4.7800 c3         1 PEM      -0.039100
     13 C10          0.2610    -2.4100     3.7150 ca         1 PEM       0.210100
     14 C11         -0.6480    -3.4000     3.3060 ca         1 PEM      -0.182500
     15 C12         -0.4300    -4.7520     3.6220 ca         1 PEM      -0.081500
     16 C13          0.7140    -5.1300     4.3480 ca         1 PEM      -0.168300
     17 C14          1.6420    -4.1460     4.7360 ca         1 PEM      -0.081500
     18 C15          1.4200    -2.7950     4.4240 ca         1 PEM      -0.182500
     19 C16          0.5790     0.0880     3.9710 c3         1 PEM       0.035000
     20 C17          0.3310     0.0760     5.5110 c3         1 PEM      -0.076600
     21 C18         -0.2050     1.2680     3.3420 c3         1 PEM      -0.076600
     22 C19          2.1000     0.2550     3.5760 c          1 PEM       0.706000
     23 O3           2.8190     0.9340     4.2990 o          1 PEM      -0.707500
     24 O4           2.5360    -0.3520     2.6050 o          1 PEM      -0.707500
     25 H21          2.4230    -4.4530     9.7650 ha         1 PEM       0.133500
     26 H31          2.2770    -2.1950    10.7750 ha         1 PEM       0.132000
     27 H51         -1.0710    -1.2470     8.2370 ha         1 PEM       0.132000
     28 HC6         -0.9500    -3.4750     7.2000 ha         1 PEM       0.133500
     29 HN1         -0.9150    -5.2700     6.8480 hn         1 PEM       0.317500
     30 HC81        -1.0370    -7.1680     5.5370 h1         1 PEM       0.042200
     31 HC82         0.3200    -7.9050     6.4160 h1         1 PEM       0.042200
     32 HC91         1.9460    -6.7420     5.1020 hc         1 PEM       0.049200
     33 HC92         0.7470    -7.2630     3.9360 hc         1 PEM       0.049200
     34 H11         -1.5400    -3.1110     2.7560 ha         1 PEM       0.132000
     35 H12         -1.1590    -5.5010     3.3200 ha         1 PEM       0.095500
     36 H14          2.5290    -4.4240     5.3030 ha         1 PEM       0.095500
     37 H15          2.1570    -2.0680     4.7440 ha         1 PEM       0.132000
     38 H171         0.5430     1.0600     5.9460 hc         1 PEM       0.027533
     39 H172        -0.7150    -0.1690     5.7350 hc         1 PEM       0.027533
     40 H173         0.9680    -0.6500     6.0270 hc         1 PEM       0.027533
     41 H181        -0.0830     1.2760     2.2520 hc         1 PEM       0.027533
     42 H182         0.1600     2.2270     3.7300 hc         1 PEM       0.027533
     43 H183        -1.2760     1.1940     3.5680 hc         1 PEM       0.027533
     44 O2          -0.0510    -1.0970     3.3970 os         1 PEM      -0.343100
@<TRIPOS>BOND
     1     1     2 ar  
     2     1     6 ar  
     3     1     8 1   
     4     2     3 ar  
     5     2    25 1   
     6     3     4 ar  
     7     3    26 1   
     8     4     5 ar  
     9     4     7 1   
    10     5     6 ar  
    11     5    27 1   
    12     6    28 1   
    13     8     9 2   
    14     8    10 1   
    15    10    11 1   
    16    10    29 1   
    17    11    12 1   
    18    11    30 1   
    19    11    31 1   
    20    12    16 1   
    21    12    32 1   
    22    12    33 1   
    23    13    14 ar  
    24    13    18 ar  
    25    13    44 1   
    26    14    15 ar  
    27    14    34 1   
    28    15    16 ar  
    29    15    35 1   
    30    16    17 ar  
    31    17    18 ar  
    32    17    36 1   
    33    18    37 1   
    34    19    20 1   
    35    19    21 1   
    36    19    22 1   
    37    19    44 1   
    38    20    38 1   
    39    20    39 1   
    40    20    40 1   
    41    21    41 1   
    42    21    42 1   
    43    21    43 1   
    44    22    23 1   
    45    22    24 1   
@<TRIPOS>SUBSTRUCTURE
     1 PEM         1 TEMP              0 ****  ****    0 ROOT
