@<TRIPOS>MOLECULE
PEO
    4     3     1     0     0
SMALL
bcc


@<TRIPOS>ATOM
      1 O1          -0.0830     0.1270     0.6710 oh         1 PEO      -0.414000
      2 O2           0.0830     0.2060    -0.7360 oh         1 PEO      -0.414000
      3 HO1          0.7850    -0.1980     0.9390 ho         1 PEO       0.414000
      4 HO2         -0.7600    -0.1510    -1.0400 ho         1 PEO       0.414000
@<TRIPOS>BOND
     1     1     2 1   
     2     1     3 1   
     3     2     4 1   
@<TRIPOS>SUBSTRUCTURE
     1 PEO         1 TEMP              0 ****  ****    0 ROOT
