@<TRIPOS>MOLECULE
PEO
    4     3     1     0     0
SMALL
No Charge or Current Charge


@<TRIPOS>ATOM
      1 O1          -0.0260     0.2740     0.7180 oh         1 PEO      -0.453000
      2 O2           0.0150     0.3520    -0.7690 oh         1 PEO      -0.453000
      3 HO1          0.7180    -0.3450     0.9250 ho         1 PEO       0.453000
      4 HO2         -0.6820    -0.2960    -1.0410 ho         1 PEO       0.453000
@<TRIPOS>BOND
     1     1     2 1   
     2     1     3 1   
     3     2     4 1   
@<TRIPOS>SUBSTRUCTURE
     1 PEO         1 TEMP              0 ****  ****    0 ROOT
