@<TRIPOS>MOLECULE
PEQ
   14    13     1     0     0
SMALL
abcg2


@<TRIPOS>ATOM
      1 C1         -14.0690   -19.4260    66.8050 c          1 PEQ       0.722000
      2 O1         -15.2800   -19.4790    66.4840 o          1 PEQ      -0.789000
      3 O2         -13.1280   -20.0630    66.2540 o          1 PEQ      -0.789000
      4 C2         -13.6990   -18.4260    67.9430 c3         1 PEQ       0.154300
      5 C3         -12.2100   -18.3250    68.2180 c3         1 PEQ      -0.083100
      6 O4         -14.4970   -18.6350    69.1200 os         1 PEQ      -0.614400
      7 P          -14.3000   -19.8550    70.2610 p5         1 PEQ       1.308900
      8 O1P        -13.1580   -19.4270    71.1840 o          1 PEQ      -0.952500
      9 O2P        -15.6640   -19.8200    70.9490 o          1 PEQ      -0.952500
     10 O3P        -14.0200   -21.1420    69.4930 o          1 PEQ      -0.952500
     11 H21        -14.0440   -17.4500    67.5900 h1         1 PEQ      -0.052300
     12 H31        -11.7690   -19.2950    68.4250 hc         1 PEQ       0.000367
     13 H32        -12.0320   -17.6690    69.0690 hc         1 PEQ       0.000367
     14 H33        -11.6990   -17.9110    67.3460 hc         1 PEQ       0.000367
@<TRIPOS>BOND
     1     1     2 1   
     2     1     3 1   
     3     1     4 1   
     4     4     5 1   
     5     4     6 1   
     6     4    11 1   
     7     5    12 1   
     8     5    13 1   
     9     5    14 1   
    10     6     7 1   
    11     7     8 1   
    12     7     9 1   
    13     7    10 1   
@<TRIPOS>SUBSTRUCTURE
     1 PEQ         1 TEMP              0 ****  ****    0 ROOT
