@<TRIPOS>MOLECULE
PEQ
   14    13     1     0     0
SMALL
No Charge or Current Charge


@<TRIPOS>ATOM
      1 C1         -14.0690   -19.4140    66.7180 c          1 PEQ       0.722000
      2 O1         -15.2070   -19.8640    66.6040 o          1 PEQ      -0.789000
      3 O2         -13.2000   -19.6750    65.8900 o          1 PEQ      -0.789000
      4 C2         -13.7260   -18.4160    67.9170 c3         1 PEQ       0.154300
      5 C3         -12.2140   -18.3830    68.2840 c3         1 PEQ      -0.083100
      6 O4         -14.5540   -18.6030    69.1100 os         1 PEQ      -0.614400
      7 P          -14.3260   -19.7510    70.2260 p5         1 PEQ       1.308900
      8 O1P        -13.1840   -19.3980    71.1140 o          1 PEQ      -0.952500
      9 O2P        -15.5580   -19.8380    71.0580 o          1 PEQ      -0.952500
     10 O3P        -14.0850   -21.0740    69.5870 o          1 PEQ      -0.952500
     11 H21        -13.9530   -17.4110    67.5320 h1         1 PEQ      -0.052300
     12 H31        -11.8380   -19.3800    68.5370 hc         1 PEQ       0.000367
     13 H32        -12.0290   -17.7050    69.1260 hc         1 PEQ       0.000367
     14 H33        -11.6280   -18.0110    67.4360 hc         1 PEQ       0.000367
@<TRIPOS>BOND
     1     1     2 1   
     2     1     3 1   
     3     1     4 1   
     4     4     5 1   
     5     4     6 1   
     6     4    11 1   
     7     5    12 1   
     8     5    13 1   
     9     5    14 1   
    10     6     7 1   
    11     7     8 1   
    12     7     9 1   
    13     7    10 1   
@<TRIPOS>SUBSTRUCTURE
     1 PEQ         1 TEMP              0 ****  ****    0 ROOT
