@<TRIPOS>MOLECULE
PET
   47    48     1     0     0
SMALL
bcc


@<TRIPOS>ATOM
      1 C1          -0.6790     0.2030     3.6870 ca         1 PET       0.161600
      2 C2           0.0520     1.3290     4.0740 ca         1 PET      -0.200250
      3 C3           0.9240     1.2590     5.1410 ca         1 PET      -0.062250
      4 C4           1.1050     0.0700     5.8490 ca         1 PET      -0.212900
      5 C5           0.3830    -1.0490     5.4470 ca         1 PET      -0.062250
      6 C6          -0.5070    -0.9930     4.3820 ca         1 PET      -0.200250
      7 C7           2.0250     0.0270     7.0170 ce         1 PET       0.667300
      8 CA          -2.3100    -0.7320     2.2320 c3         1 PET       0.140400
      9 CB          -3.1960    -0.2780     1.1030 c3         1 PET       0.136400
     10 C8          -0.6640    -0.1570    -3.6820 ca         1 PET       0.161600
     11 C9           0.0240    -1.3150    -4.0560 ca         1 PET      -0.200250
     12 C10          0.9260    -1.2830    -5.0980 ca         1 PET      -0.062250
     13 C11          1.1700    -0.1050    -5.8090 ca         1 PET      -0.212900
     14 C12          0.4860     1.0420    -5.4230 ca         1 PET      -0.062250
     15 C13         -0.4230     1.0280    -4.3720 ca         1 PET      -0.200250
     16 C14          2.1510    -0.1120    -6.9250 ce         1 PET       0.667300
     17 C15         -2.2650     0.8550    -2.2450 c3         1 PET       0.140400
     18 C16         -3.1760     0.4470    -1.1190 c3         1 PET       0.136400
     19 N1           2.2380     1.0050     7.8130 n2         1 PET      -0.840100
     20 N2           2.6220    -1.1810     7.2380 nv         1 PET      -0.942800
     21 N3           3.0460    -1.0250    -6.9510 n2         1 PET      -0.840100
     22 N4           2.0320     0.9140    -7.8200 nv         1 PET      -0.942800
     23 O1          -1.5140     0.3640     2.6480 os         1 PET      -0.310400
     24 O3          -1.5260    -0.2810    -2.6600 os         1 PET      -0.310400
     25 O2          -2.4080     0.0610    -0.0090 os         1 PET      -0.386600
     26 H2          -0.0710     2.2570     3.5290 ha         1 PET       0.141750
     27 H3           1.4860     2.1440     5.4120 ha         1 PET       0.141250
     28 H5           0.4890    -1.9860     5.9780 ha         1 PET       0.141250
     29 H6          -1.0560    -1.8850     4.1170 ha         1 PET       0.141750
     30 HA1         -1.6810    -1.5690     1.9080 h1         1 PET       0.046700
     31 HA2         -2.9450    -1.0860     3.0500 h1         1 PET       0.046700
     32 HB1         -3.8830    -1.1030     0.8690 h1         1 PET       0.033450
     33 HB2         -3.8130     0.5710     1.4260 h1         1 PET       0.033450
     34 H1          -0.1610    -2.2390    -3.5220 ha         1 PET       0.141750
     35 H4           1.4500    -2.1870    -5.3760 ha         1 PET       0.141250
     36 H7           0.6620     1.9850    -5.9250 ha         1 PET       0.141250
     37 H8          -0.9240     1.9500    -4.1090 ha         1 PET       0.141750
     38 HA'1        -2.8770     1.2430    -3.0660 h1         1 PET       0.046700
     39 HA'2        -1.5940     1.6570    -1.9180 h1         1 PET       0.046700
     40 HB'1        -3.8410    -0.3650    -1.4440 h1         1 PET       0.033450
     41 HB'2        -3.8160     1.3080    -0.8820 h1         1 PET       0.033450
     42 HN1          1.6400     1.7910     7.5840 hn         1 PET       0.377900
     43 HN21         3.3310    -1.1960     7.9540 hn         1 PET       0.407050
     44 HN22         2.8350    -1.7560     6.4400 hn         1 PET       0.407050
     45 H9           3.6290    -0.9440    -7.7790 hn         1 PET       0.377900
     46 HN'1         2.5760     0.8520    -8.6650 hn         1 PET       0.407050
     47 HN'2         1.1220     1.3220    -7.9620 hn         1 PET       0.407050
@<TRIPOS>BOND
     1     1     2 ar  
     2     1     6 ar  
     3     1    23 1   
     4     2     3 ar  
     5     2    26 1   
     6     3     4 ar  
     7     3    27 1   
     8     4     5 ar  
     9     4     7 1   
    10     5     6 ar  
    11     5    28 1   
    12     6    29 1   
    13     7    19 2   
    14     7    20 1   
    15     8     9 1   
    16     8    23 1   
    17     8    30 1   
    18     8    31 1   
    19     9    25 1   
    20     9    32 1   
    21     9    33 1   
    22    10    11 ar  
    23    10    15 ar  
    24    10    24 1   
    25    11    12 ar  
    26    11    34 1   
    27    12    13 ar  
    28    12    35 1   
    29    13    14 ar  
    30    13    16 1   
    31    14    15 ar  
    32    14    36 1   
    33    15    37 1   
    34    16    21 2   
    35    16    22 1   
    36    17    18 1   
    37    17    24 1   
    38    17    38 1   
    39    17    39 1   
    40    18    25 1   
    41    18    40 1   
    42    18    41 1   
    43    19    42 1   
    44    20    43 1   
    45    20    44 1   
    46    21    45 1   
    47    22    46 1   
    48    22    47 1   
@<TRIPOS>SUBSTRUCTURE
     1 PET         1 TEMP              0 ****  ****    0 ROOT
