@<TRIPOS>MOLECULE
PET
   47    48     1     0     0
SMALL
No Charge or Current Charge


@<TRIPOS>ATOM
      1 C1          -0.7740     0.1960     3.8630 ca         1 PET       0.161600
      2 C2          -0.1850     1.3720     4.3490 ca         1 PET      -0.182250
      3 C3           0.7390     1.3260     5.4070 ca         1 PET      -0.044250
      4 C4           1.1030     0.0900     5.9900 ca         1 PET      -0.212900
      5 C5           0.4890    -1.0900     5.5080 ca         1 PET      -0.044250
      6 C6          -0.4360    -1.0400     4.4500 ca         1 PET      -0.182250
      7 C7           2.0520     0.0390     7.1410 ce         1 PET       0.667300
      8 CA          -2.3340    -0.8410     2.2530 c3         1 PET       0.163600
      9 CB          -3.2680    -0.3630     1.1180 c3         1 PET       0.159600
     10 C8          -0.7180    -0.1630    -3.8280 ca         1 PET       0.161600
     11 C9          -0.1920    -1.3720    -4.3020 ca         1 PET      -0.182250
     12 C10          0.7500    -1.3840    -5.3450 ca         1 PET      -0.044250
     13 C11          1.1720    -0.1770    -5.9480 ca         1 PET      -0.212900
     14 C12          0.6550     1.0420    -5.4480 ca         1 PET      -0.044250
     15 C13         -0.2860     1.0500    -4.4040 ca         1 PET      -0.182250
     16 C14          2.2010    -0.1970    -7.0340 ce         1 PET       0.667300
     17 C15         -2.2360     0.9710    -2.2430 c3         1 PET       0.163600
     18 C16         -3.2180     0.5530    -1.1260 c3         1 PET       0.159600
     19 N1           2.2760     1.0220     7.9090 n2         1 PET      -0.840100
     20 N2           2.8290    -1.0500     7.2670 nv         1 PET      -1.053200
     21 N3           2.9650    -1.1860    -7.2500 n2         1 PET      -0.840100
     22 N4           2.2210     0.8360    -7.8980 nv         1 PET      -1.053200
     23 O1          -1.6740     0.3080     2.8240 os         1 PET      -0.333600
     24 O3          -1.6380    -0.2160    -2.8030 os         1 PET      -0.333600
     25 O2          -2.4640     0.0710     0.0030 os         1 PET      -0.433000
     26 H2          -0.4470     2.3270     3.9020 ha         1 PET       0.123750
     27 H3           1.1820     2.2570     5.7570 ha         1 PET       0.123250
     28 H5           0.7180    -2.0540     5.9590 ha         1 PET       0.123250
     29 H6          -0.8820    -1.9690     4.1070 ha         1 PET       0.123750
     30 HA1         -1.6050    -1.5550     1.8490 h1         1 PET       0.046700
     31 HA2         -2.9370    -1.3520     3.0140 h1         1 PET       0.046700
     32 HB1         -3.9170    -1.1960     0.8180 h1         1 PET       0.033450
     33 HB2         -3.9050     0.4520     1.4870 h1         1 PET       0.033450
     34 H1          -0.5140    -2.3090    -3.8550 ha         1 PET       0.123750
     35 H4           1.1440    -2.3380    -5.6890 ha         1 PET       0.123250
     36 H7           0.9870     1.9950    -5.8560 ha         1 PET       0.123250
     37 H8          -0.6630     2.0060    -4.0520 ha         1 PET       0.123750
     38 HA'1        -2.7910     1.5190    -3.0150 h1         1 PET       0.046700
     39 HA'2        -1.4710     1.6390    -1.8250 h1         1 PET       0.046700
     40 HB'1        -3.8980    -0.2210    -1.5070 h1         1 PET       0.033450
     41 HB'2        -3.8190     1.4250    -0.8380 h1         1 PET       0.033450
     42 HN1          1.5670     1.7410     7.7130 hn         1 PET       0.377900
     43 HN21         3.6550    -0.8940     7.8330 hn         1 PET       0.462250
     44 HN22         2.9680    -1.5870     6.4200 hn         1 PET       0.462250
     45 H9           3.7030    -0.8800    -7.8940 hn         1 PET       0.377900
     46 HN'1         2.5690     0.6240    -8.8260 hn         1 PET       0.462250
     47 HN'2         1.4010     1.4310    -7.8760 hn         1 PET       0.462250
@<TRIPOS>BOND
     1     1     2 ar  
     2     1     6 ar  
     3     1    23 1   
     4     2     3 ar  
     5     2    26 1   
     6     3     4 ar  
     7     3    27 1   
     8     4     5 ar  
     9     4     7 1   
    10     5     6 ar  
    11     5    28 1   
    12     6    29 1   
    13     7    19 2   
    14     7    20 1   
    15     8     9 1   
    16     8    23 1   
    17     8    30 1   
    18     8    31 1   
    19     9    25 1   
    20     9    32 1   
    21     9    33 1   
    22    10    11 ar  
    23    10    15 ar  
    24    10    24 1   
    25    11    12 ar  
    26    11    34 1   
    27    12    13 ar  
    28    12    35 1   
    29    13    14 ar  
    30    13    16 1   
    31    14    15 ar  
    32    14    36 1   
    33    15    37 1   
    34    16    21 2   
    35    16    22 1   
    36    17    18 1   
    37    17    24 1   
    38    17    38 1   
    39    17    39 1   
    40    18    25 1   
    41    18    40 1   
    42    18    41 1   
    43    19    42 1   
    44    20    43 1   
    45    20    44 1   
    46    21    45 1   
    47    22    46 1   
    48    22    47 1   
@<TRIPOS>SUBSTRUCTURE
     1 PET         1 TEMP              0 ****  ****    0 ROOT
