@<TRIPOS>MOLECULE
PEU
  195   194     1     0     0
SMALL
abcg2


@<TRIPOS>ATOM
      1 CAA        -33.1590     6.2460    -1.5260 c3         1 PEU       0.145900
      2 OAB        -32.8360     4.9020    -1.7700 os         1 PEU      -0.442000
      3 CAC        -32.2760     4.2720    -0.6470 c3         1 PEU       0.158600
      4 CAD        -31.9430     2.8390    -0.9740 c3         1 PEU       0.161600
      5 OAE        -30.9300     2.7950    -1.9460 os         1 PEU      -0.434000
      6 CAF        -30.5430     1.4830    -2.2660 c3         1 PEU       0.161600
      7 CAG        -29.4630     1.5100    -3.3170 c3         1 PEU       0.161600
      8 OAH        -28.3130     2.1290    -2.7990 os         1 PEU      -0.434000
      9 CAI        -27.2500     2.1510    -3.7170 c3         1 PEU       0.161600
     10 CAJ        -26.0950     2.9310    -3.1430 c3         1 PEU       0.161600
     11 OAK        -25.5950     2.2800    -2.0040 os         1 PEU      -0.434000
     12 CAL        -24.5080     2.9600    -1.4290 c3         1 PEU       0.161600
     13 CAM        -24.0730     2.2640    -0.1660 c3         1 PEU       0.162600
     14 OAN        -23.5690     0.9880    -0.4680 os         1 PEU      -0.434000
     15 CAO        -23.0980     0.3120     0.6690 c3         1 PEU       0.161600
     16 CAP        -22.5500    -1.0360     0.2760 c3         1 PEU       0.161600
     17 OAQ        -21.4150    -0.8680    -0.5340 os         1 PEU      -0.435000
     18 CAR        -20.7970    -2.0850    -0.8630 c3         1 PEU       0.162600
     19 CAS        -19.6150    -1.8290    -1.7630 c3         1 PEU       0.162600
     20 OAT        -18.6510    -1.0730    -1.0760 os         1 PEU      -0.435000
     21 CAU        -17.5120    -0.8090    -1.8550 c3         1 PEU       0.161600
     22 CAV        -16.5750     0.0950    -1.0970 c3         1 PEU       0.161600
     23 OAW        -16.0750    -0.5710     0.0350 os         1 PEU      -0.435000
     24 CAX        -15.2470     0.2520     0.8180 c3         1 PEU       0.161600
     25 CAY        -14.7390    -0.5100     2.0140 c3         1 PEU       0.161600
     26 OAZ        -13.8830    -1.5420     1.5940 os         1 PEU      -0.435000
     27 CBA        -13.2920    -2.2260     2.6690 c3         1 PEU       0.161600
     28 CBB        -12.3710    -3.2990     2.1460 c3         1 PEU       0.162600
     29 OBC        -11.3110    -2.7090     1.4380 os         1 PEU      -0.435000
     30 CCG        -10.3920    -3.6520     0.9480 c3         1 PEU       0.161600
     31 CCF         -9.3430    -2.9550     0.1200 c3         1 PEU       0.161600
     32 OCE         -8.5670    -2.1150     0.9360 os         1 PEU      -0.435000
     33 CCD         -7.5990    -1.4030     0.2090 c3         1 PEU       0.161600
     34 CCC         -6.8020    -0.5220     1.1350 c3         1 PEU       0.161600
     35 OCB         -6.0470    -1.3130     2.0180 os         1 PEU      -0.434000
     36 CCA         -5.2200    -0.5460     2.8550 c3         1 PEU       0.161600
     37 CBZ         -4.4360    -1.4500     3.7710 c3         1 PEU       0.161600
     38 OBY         -3.5730    -2.2600     3.0150 os         1 PEU      -0.434000
     39 CBX         -2.7490    -3.0690     3.8160 c3         1 PEU       0.161600
     40 CBW         -1.9050    -3.9610     2.9430 c3         1 PEU       0.162600
     41 OBV         -1.0410    -3.1810     2.1570 os         1 PEU      -0.434000
     42 CBU         -0.1870    -3.9570     1.3560 c3         1 PEU       0.161600
     43 CBT          0.6440    -3.0580     0.4770 c3         1 PEU       0.161600
     44 OBS          1.4880    -2.2620     1.2700 os         1 PEU      -0.435000
     45 CBR          2.2860    -1.3950     0.5050 c3         1 PEU       0.161600
     46 CBQ          3.1170    -0.5270     1.4160 c3         1 PEU       0.162600
     47 OBP          4.0440    -1.3180     2.1140 os         1 PEU      -0.435000
     48 CBO          4.8510    -0.5650     2.9830 c3         1 PEU       0.161600
     49 CBN          5.8690    -1.4610     3.6410 c3         1 PEU       0.161600
     50 OBM          6.7630    -1.9470     2.6720 os         1 PEU      -0.437000
     51 CBL          7.7770    -2.7520     3.2150 c3         1 PEU       0.161600
     52 CBK          8.6720    -3.2490     2.1080 c3         1 PEU       0.162600
     53 OBJ          9.3300    -2.1610     1.5110 os         1 PEU      -0.437000
     54 CBI         10.0940    -2.5280     0.3910 c3         1 PEU       0.162600
     55 CBH         10.7290    -1.3020    -0.2110 c3         1 PEU       0.161600
     56 OBG         11.6900    -0.7840     0.6740 os         1 PEU      -0.438000
     57 CBF         12.3160     0.3740     0.1820 c3         1 PEU       0.162600
     58 CBE         13.3810     0.8240     1.1480 c3         1 PEU       0.161600
     59 OBD         14.4120    -0.1290     1.1950 os         1 PEU      -0.437000
     60 CCH         15.4380     0.2230     2.0870 c3         1 PEU       0.162600
     61 CCI         16.5000    -0.8470     2.0870 c3         1 PEU       0.162600
     62 OCJ         17.1230    -0.8960     0.8290 os         1 PEU      -0.436000
     63 CCK         18.1310    -1.8710     0.7590 c3         1 PEU       0.162600
     64 CCL         18.7680    -1.8480    -0.6070 c3         1 PEU       0.162600
     65 OCM         19.4410    -0.6300    -0.7950 os         1 PEU      -0.436000
     66 CCN         20.0650    -0.5390    -2.0500 c3         1 PEU       0.162600
     67 CCO         20.7240     0.8090    -2.1910 c3         1 PEU       0.162600
     68 OCP         21.7680     0.9250    -1.2580 os         1 PEU      -0.437000
     69 CCQ         22.3970     2.1800    -1.2980 c3         1 PEU       0.162600
     70 CCR         23.4890     2.2330    -0.2610 c3         1 PEU       0.162600
     71 OCS         24.5120     1.3330    -0.6030 os         1 PEU      -0.436000
     72 CCT         25.5640     1.3270     0.3270 c3         1 PEU       0.162600
     73 CCU         26.6450     0.3840    -0.1330 c3         1 PEU       0.161600
     74 OCV         27.2210     0.8670    -1.3200 os         1 PEU      -0.436000
     75 CCW         28.2530     0.0440    -1.8000 c3         1 PEU       0.162600
     76 CCX         28.8050     0.6200    -3.0790 c3         1 PEU       0.162600
     77 OCY         29.4030     1.8640    -2.8180 os         1 PEU      -0.436000
     78 CCZ         29.9500     2.4580    -3.9670 c3         1 PEU       0.162600
     79 CDA         30.5180     3.8090    -3.6180 c3         1 PEU       0.161600
     80 ODB         31.6130     3.6570    -2.7510 os         1 PEU      -0.435000
     81 CDC         32.1680     4.8870    -2.3590 c3         1 PEU       0.160600
     82 CDD         33.3210     4.6550    -1.4160 c3         1 PEU       0.163600
     83 ODE         34.3670     4.0030    -2.0990 oh         1 PEU      -0.709000
     84 HAA1       -33.5580     6.6710    -2.4460 h1         1 PEU       0.026700
     85 HAA2       -33.9150     6.3550    -0.7390 h1         1 PEU       0.026700
     86 HAA3       -32.2810     6.8340    -1.2280 h1         1 PEU       0.026700
     87 HAC1       -31.3710     4.7990    -0.3100 h1         1 PEU       0.029200
     88 HAC2       -32.9770     4.2720     0.2000 h1         1 PEU       0.029200
     89 HAD1       -31.6230     2.3450    -0.0460 h1         1 PEU       0.026200
     90 HAD2       -32.8450     2.3120    -1.3190 h1         1 PEU       0.026200
     91 HAF1       -30.1830     0.9490    -1.3750 h1         1 PEU       0.027200
     92 HAF2       -31.3900     0.9040    -2.6610 h1         1 PEU       0.027200
     93 HAG1       -29.2570     0.4740    -3.6180 h1         1 PEU       0.027700
     94 HAG2       -29.8210     2.0370    -4.2140 h1         1 PEU       0.027700
     95 HAI1       -26.9270     1.1310    -3.9720 h1         1 PEU       0.027700
     96 HAI2       -27.5480     2.6350    -4.6580 h1         1 PEU       0.027700
     97 HAJ1       -25.3240     3.0180    -3.9220 h1         1 PEU       0.027200
     98 HAJ2       -26.4190     3.9530    -2.9010 h1         1 PEU       0.027200
     99 HAL1       -23.6660     3.0240    -2.1340 h1         1 PEU       0.027700
    100 HAL2       -24.7820     3.9920    -1.1680 h1         1 PEU       0.027700
    101 HAM1       -23.3060     2.8870     0.3160 h1         1 PEU       0.027200
    102 HAM2       -24.9170     2.2000     0.5360 h1         1 PEU       0.027200
    103 HAO1       -22.3170     0.8960     1.1790 h1         1 PEU       0.027700
    104 HAO2       -23.9040     0.1540     1.4000 h1         1 PEU       0.027700
    105 HAP1       -22.3020    -1.5820     1.1970 h1         1 PEU       0.027700
    106 HAP2       -23.3230    -1.6230    -0.2420 h1         1 PEU       0.027700
    107 HAR1       -20.4700    -2.6180     0.0410 h1         1 PEU       0.027200
    108 HAR2       -21.4900    -2.7530    -1.3940 h1         1 PEU       0.027200
    109 HAS1       -19.2090    -2.8010    -2.0760 h1         1 PEU       0.027200
    110 HAS2       -19.9400    -1.3110    -2.6760 h1         1 PEU       0.027200
    111 HAU1       -16.9990    -1.7410    -2.1350 h1         1 PEU       0.027700
    112 HAU2       -17.7830    -0.3040    -2.7920 h1         1 PEU       0.027700
    113 HAV1       -15.7600     0.3910    -1.7720 h1         1 PEU       0.028200
    114 HAV2       -17.1010     1.0170    -0.8100 h1         1 PEU       0.028200
    115 HAX1       -14.3970     0.6300     0.2310 h1         1 PEU       0.027700
    116 HAX2       -15.7970     1.1310     1.1800 h1         1 PEU       0.027700
    117 HAY1       -14.2110     0.2000     2.6660 h1         1 PEU       0.027700
    118 HAY2       -15.5830    -0.9080     2.5970 h1         1 PEU       0.027700
    119 HBA1       -12.7350    -1.5320     3.3150 h1         1 PEU       0.027700
    120 HBA2       -14.0510    -2.7080     3.3010 h1         1 PEU       0.027700
    121 HBB1       -12.0040    -3.8790     3.0050 h1         1 PEU       0.027700
    122 HBB2       -12.9320    -3.9960     1.5080 h1         1 PEU       0.027700
    123 HCG1        -9.9180    -4.2080     1.7700 h1         1 PEU       0.027700
    124 HCG2       -10.8890    -4.3940     0.3070 h1         1 PEU       0.027700
    125 HCF1        -8.7210    -3.7230    -0.3620 h1         1 PEU       0.027700
    126 HCF2        -9.8250    -2.3850    -0.6860 h1         1 PEU       0.027700
    127 HCD1        -6.9240    -2.0860    -0.3280 h1         1 PEU       0.028200
    128 HCD2        -8.0690    -0.7610    -0.5500 h1         1 PEU       0.028200
    129 HCC1        -6.1500     0.1130     0.5190 h1         1 PEU       0.028200
    130 HCC2        -7.4750     0.1520     1.6850 h1         1 PEU       0.028200
    131 HCA1        -4.5320     0.0760     2.2640 h1         1 PEU       0.027200
    132 HCA2        -5.8110     0.1400     3.4790 h1         1 PEU       0.027200
    133 HBZ1        -3.8740    -0.8150     4.4700 h1         1 PEU       0.027200
    134 HBZ2        -5.1210    -2.0610     4.3760 h1         1 PEU       0.027200
    135 HBX1        -2.1050    -2.4550     4.4620 h1         1 PEU       0.027200
    136 HBX2        -3.3460    -3.7110     4.4790 h1         1 PEU       0.027200
    137 HBW1        -1.3420    -4.6400     3.5990 h1         1 PEU       0.027200
    138 HBW2        -2.5500    -4.5900     2.3130 h1         1 PEU       0.027200
    139 HBU1         0.4660    -4.5900     1.9740 h1         1 PEU       0.027200
    140 HBU2        -0.7590    -4.6310     0.7040 h1         1 PEU       0.027200
    141 HBT1         1.2240    -3.6930    -0.2070 h1         1 PEU       0.027700
    142 HBT2        -0.0130    -2.4340    -0.1460 h1         1 PEU       0.027700
    143 HBR1         2.9400    -1.9580    -0.1770 h1         1 PEU       0.028200
    144 HBR2         1.6670    -0.7360    -0.1190 h1         1 PEU       0.028200
    145 HBQ1         3.6260     0.2250     0.7970 h1         1 PEU       0.028200
    146 HBQ2         2.4620     0.0210     2.1080 h1         1 PEU       0.028200
    147 HBO1         5.3650     0.2440     2.4440 h1         1 PEU       0.028200
    148 HBO2         4.2500    -0.0890     3.7710 h1         1 PEU       0.028200
    149 HBN1         6.3950    -0.8730     4.4070 h1         1 PEU       0.028200
    150 HBN2         5.3660    -2.2870     4.1650 h1         1 PEU       0.028200
    151 HBL1         8.3700    -2.1950     3.9550 h1         1 PEU       0.027700
    152 HBL2         7.3590    -3.6240     3.7350 h1         1 PEU       0.027700
    153 HBK1         9.3890    -3.9610     2.5400 h1         1 PEU       0.028200
    154 HBK2         8.0780    -3.8040     1.3690 h1         1 PEU       0.028200
    155 HBI1        10.8710    -3.2590     0.6590 h1         1 PEU       0.028200
    156 HBI2         9.4650    -3.0020    -0.3760 h1         1 PEU       0.028200
    157 HBH1        11.1880    -1.5850    -1.1690 h1         1 PEU       0.028700
    158 HBH2         9.9540    -0.5550    -0.4370 h1         1 PEU       0.028700
    159 HBF1        12.7610     0.1930    -0.8070 h1         1 PEU       0.028700
    160 HBF2        11.5940     1.1930     0.0610 h1         1 PEU       0.028700
    161 HBE1        13.7590     1.8000     0.8100 h1         1 PEU       0.028200
    162 HBE2        12.9430     0.9820     2.1440 h1         1 PEU       0.028200
    163 HCH1        15.8820     1.1920     1.8150 h1         1 PEU       0.027700
    164 HCH2        15.0550     0.3260     3.1110 h1         1 PEU       0.027700
    165 HCI1        17.2250    -0.6120     2.8780 h1         1 PEU       0.027700
    166 HCI2        16.0520    -1.8180     2.3440 h1         1 PEU       0.027700
    167 HCK1        18.8960    -1.7040     1.5310 h1         1 PEU       0.027700
    168 HCK2        17.7230    -2.8770     0.9290 h1         1 PEU       0.027700
    169 HCL1        19.4600    -2.6990    -0.6750 h1         1 PEU       0.027700
    170 HCL2        18.0010    -1.9990    -1.3800 h1         1 PEU       0.027700
    171 HCN1        20.8100    -1.3370    -2.1800 h1         1 PEU       0.028200
    172 HCN2        19.3350    -0.6490    -2.8640 h1         1 PEU       0.028200
    173 HCO1        21.0990     0.9020    -3.2190 h1         1 PEU       0.027700
    174 HCO2        19.9790     1.6050    -2.0500 h1         1 PEU       0.027700
    175 HCQ1        22.8160     2.3810    -2.2940 h1         1 PEU       0.028200
    176 HCQ2        21.6810     2.9870    -1.0860 h1         1 PEU       0.028200
    177 HCR1        23.8700     3.2630    -0.2140 h1         1 PEU       0.028200
    178 HCR2        23.0740     2.0030     0.7320 h1         1 PEU       0.028200
    179 HCT1        25.9800     2.3360     0.4580 h1         1 PEU       0.027700
    180 HCT2        25.2180     0.9960     1.3160 h1         1 PEU       0.027700
    181 HCU1        27.3940     0.3070     0.6680 h1         1 PEU       0.028200
    182 HCU2        26.2300    -0.6240    -0.2770 h1         1 PEU       0.028200
    183 HCW1        29.0560    -0.0570    -1.0560 h1         1 PEU       0.027700
    184 HCW2        27.8860    -0.9700    -2.0110 h1         1 PEU       0.027700
    185 HCX1        29.5340    -0.0930    -3.4900 h1         1 PEU       0.027700
    186 HCX2        28.0020     0.7180    -3.8240 h1         1 PEU       0.027700
    187 HCZ1        30.7330     1.8220    -4.4060 h1         1 PEU       0.028200
    188 HCZ2        29.1850     2.5990    -4.7420 h1         1 PEU       0.028200
    189 HDA1        30.8170     4.3070    -4.5510 h1         1 PEU       0.028200
    190 HDA2        29.7370     4.4350    -3.1610 h1         1 PEU       0.028200
    191 HDC1        32.5100     5.4620    -3.2330 h1         1 PEU       0.026200
    192 HDC2        31.4230     5.5080    -1.8430 h1         1 PEU       0.026200
    193 HDD1        33.6300     5.6350    -1.0320 h1         1 PEU       0.025200
    194 HDD2        32.9720     4.0720    -0.5530 h1         1 PEU       0.025200
    195 HDE         35.0790     3.8470    -1.4730 ho         1 PEU       0.499000
@<TRIPOS>BOND
     1     1     2 1   
     2     1    84 1   
     3     1    85 1   
     4     1    86 1   
     5     2     3 1   
     6     3     4 1   
     7     3    87 1   
     8     3    88 1   
     9     4     5 1   
    10     4    89 1   
    11     4    90 1   
    12     5     6 1   
    13     6     7 1   
    14     6    91 1   
    15     6    92 1   
    16     7     8 1   
    17     7    93 1   
    18     7    94 1   
    19     8     9 1   
    20     9    10 1   
    21     9    95 1   
    22     9    96 1   
    23    10    11 1   
    24    10    97 1   
    25    10    98 1   
    26    11    12 1   
    27    12    13 1   
    28    12    99 1   
    29    12   100 1   
    30    13    14 1   
    31    13   101 1   
    32    13   102 1   
    33    14    15 1   
    34    15    16 1   
    35    15   103 1   
    36    15   104 1   
    37    16    17 1   
    38    16   105 1   
    39    16   106 1   
    40    17    18 1   
    41    18    19 1   
    42    18   107 1   
    43    18   108 1   
    44    19    20 1   
    45    19   109 1   
    46    19   110 1   
    47    20    21 1   
    48    21    22 1   
    49    21   111 1   
    50    21   112 1   
    51    22    23 1   
    52    22   113 1   
    53    22   114 1   
    54    23    24 1   
    55    24    25 1   
    56    24   115 1   
    57    24   116 1   
    58    25    26 1   
    59    25   117 1   
    60    25   118 1   
    61    26    27 1   
    62    27    28 1   
    63    27   119 1   
    64    27   120 1   
    65    28    29 1   
    66    28   121 1   
    67    28   122 1   
    68    29    30 1   
    69    30    31 1   
    70    30   123 1   
    71    30   124 1   
    72    31    32 1   
    73    31   125 1   
    74    31   126 1   
    75    32    33 1   
    76    33    34 1   
    77    33   127 1   
    78    33   128 1   
    79    34    35 1   
    80    34   129 1   
    81    34   130 1   
    82    35    36 1   
    83    36    37 1   
    84    36   131 1   
    85    36   132 1   
    86    37    38 1   
    87    37   133 1   
    88    37   134 1   
    89    38    39 1   
    90    39    40 1   
    91    39   135 1   
    92    39   136 1   
    93    40    41 1   
    94    40   137 1   
    95    40   138 1   
    96    41    42 1   
    97    42    43 1   
    98    42   139 1   
    99    42   140 1   
   100    43    44 1   
   101    43   141 1   
   102    43   142 1   
   103    44    45 1   
   104    45    46 1   
   105    45   143 1   
   106    45   144 1   
   107    46    47 1   
   108    46   145 1   
   109    46   146 1   
   110    47    48 1   
   111    48    49 1   
   112    48   147 1   
   113    48   148 1   
   114    49    50 1   
   115    49   149 1   
   116    49   150 1   
   117    50    51 1   
   118    51    52 1   
   119    51   151 1   
   120    51   152 1   
   121    52    53 1   
   122    52   153 1   
   123    52   154 1   
   124    53    54 1   
   125    54    55 1   
   126    54   155 1   
   127    54   156 1   
   128    55    56 1   
   129    55   157 1   
   130    55   158 1   
   131    56    57 1   
   132    57    58 1   
   133    57   159 1   
   134    57   160 1   
   135    58    59 1   
   136    58   161 1   
   137    58   162 1   
   138    59    60 1   
   139    60    61 1   
   140    60   163 1   
   141    60   164 1   
   142    61    62 1   
   143    61   165 1   
   144    61   166 1   
   145    62    63 1   
   146    63    64 1   
   147    63   167 1   
   148    63   168 1   
   149    64    65 1   
   150    64   169 1   
   151    64   170 1   
   152    65    66 1   
   153    66    67 1   
   154    66   171 1   
   155    66   172 1   
   156    67    68 1   
   157    67   173 1   
   158    67   174 1   
   159    68    69 1   
   160    69    70 1   
   161    69   175 1   
   162    69   176 1   
   163    70    71 1   
   164    70   177 1   
   165    70   178 1   
   166    71    72 1   
   167    72    73 1   
   168    72   179 1   
   169    72   180 1   
   170    73    74 1   
   171    73   181 1   
   172    73   182 1   
   173    74    75 1   
   174    75    76 1   
   175    75   183 1   
   176    75   184 1   
   177    76    77 1   
   178    76   185 1   
   179    76   186 1   
   180    77    78 1   
   181    78    79 1   
   182    78   187 1   
   183    78   188 1   
   184    79    80 1   
   185    79   189 1   
   186    79   190 1   
   187    80    81 1   
   188    81    82 1   
   189    81   191 1   
   190    81   192 1   
   191    82    83 1   
   192    82   193 1   
   193    82   194 1   
   194    83   195 1   
@<TRIPOS>SUBSTRUCTURE
     1 PEU         1 TEMP              0 ****  ****    0 ROOT
