@<TRIPOS>MOLECULE
PEU
  195   194     1     0     0
SMALL
No Charge or Current Charge


@<TRIPOS>ATOM
      1 CAA        -36.6390     3.8170    -4.6610 c3         1 PEU       0.145900
      2 OAB        -35.9440     3.8340    -3.4040 os         1 PEU      -0.442000
      3 CAC        -34.7680     4.6680    -3.3830 c3         1 PEU       0.158600
      4 CAD        -34.1140     4.5910    -1.9820 c3         1 PEU       0.161600
      5 OAE        -33.5020     3.2960    -1.8180 os         1 PEU      -0.434000
      6 CAF        -32.8600     3.0970    -0.5430 c3         1 PEU       0.161600
      7 CAG        -32.2340     1.6820    -0.5080 c3         1 PEU       0.161600
      8 OAH        -31.0830     1.6550    -1.3760 os         1 PEU      -0.434000
      9 CAI        -30.4120     0.3810    -1.4400 c3         1 PEU       0.161600
     10 CAJ        -29.2020     0.4950    -2.3970 c3         1 PEU       0.161600
     11 OAK        -28.1730     1.2830    -1.7650 os         1 PEU      -0.434000
     12 CAL        -26.9980     1.4890    -2.5730 c3         1 PEU       0.161600
     13 CAM        -25.9760     2.3330    -1.7730 c3         1 PEU       0.162600
     14 OAN        -25.3990     1.5150    -0.7360 os         1 PEU      -0.434000
     15 CAO        -24.4360     2.1960     0.0930 c3         1 PEU       0.161600
     16 CAP        -23.8720     1.2000     1.1350 c3         1 PEU       0.161600
     17 OAQ        -23.0000     0.2660     0.4680 os         1 PEU      -0.435000
     18 CAR        -22.4040    -0.7200     1.3340 c3         1 PEU       0.162600
     19 CAS        -21.4840    -1.6390     0.4960 c3         1 PEU       0.162600
     20 OAT        -20.3120    -0.8980     0.1020 os         1 PEU      -0.435000
     21 CAU        -19.3790    -1.6400    -0.7080 c3         1 PEU       0.161600
     22 CAV        -18.1820    -0.7260    -1.0630 c3         1 PEU       0.161600
     23 OAW        -17.3690    -0.5340     0.1120 os         1 PEU      -0.435000
     24 CAX        -16.2400     0.3410    -0.0820 c3         1 PEU       0.161600
     25 CAY        -15.4400     0.4370     1.2400 c3         1 PEU       0.161600
     26 OAZ        -14.7230    -0.7960     1.4460 os         1 PEU      -0.435000
     27 CBA        -13.9320    -0.8310     2.6510 c3         1 PEU       0.161600
     28 CBB        -13.1790    -2.1810     2.7240 c3         1 PEU       0.162600
     29 OBC        -12.1350    -2.1900     1.7300 os         1 PEU      -0.435000
     30 CCG        -11.3470    -3.3970     1.6990 c3         1 PEU       0.161600
     31 CCF        -10.2790    -3.2710     0.5860 c3         1 PEU       0.161600
     32 OCE         -9.2790    -2.3190     0.9990 os         1 PEU      -0.435000
     33 CCD         -8.2520    -2.0680     0.0190 c3         1 PEU       0.161600
     34 CCC         -7.2540    -1.0320     0.5870 c3         1 PEU       0.161600
     35 OCB         -6.4310    -1.6660     1.5850 os         1 PEU      -0.434000
     36 CCA         -5.4760    -0.7880     2.2150 c3         1 PEU       0.161600
     37 CBZ         -4.6160    -1.6030     3.2090 c3         1 PEU       0.161600
     38 OBY         -3.7060    -2.4380     2.4660 os         1 PEU      -0.434000
     39 CBX         -2.8210    -3.2330     3.2810 c3         1 PEU       0.161600
     40 CBW         -1.8880    -4.0550     2.3590 c3         1 PEU       0.162600
     41 OBV         -0.9520    -3.1620     1.7230 os         1 PEU      -0.434000
     42 CBU         -0.0280    -3.8060     0.8230 c3         1 PEU       0.161600
     43 CBT          0.8920    -2.7330     0.1930 c3         1 PEU       0.161600
     44 OBS          1.8160    -2.2570     1.1920 os         1 PEU      -0.435000
     45 CBR          2.6930    -1.2060     0.7380 c3         1 PEU       0.161600
     46 CBQ          3.6420    -0.8050     1.8930 c3         1 PEU       0.162600
     47 OBP          4.6330    -1.8360     2.0680 os         1 PEU      -0.435000
     48 CBO          5.5790    -1.5800     3.1250 c3         1 PEU       0.161600
     49 CBN          6.6190    -2.7250     3.1640 c3         1 PEU       0.161600
     50 OBM          7.4820    -2.6130     2.0140 os         1 PEU      -0.437000
     51 CBL          8.5150    -3.6160     1.9400 c3         1 PEU       0.161600
     52 CBK          9.3550    -3.3790     0.6620 c3         1 PEU       0.162600
     53 OBJ         10.1520    -2.1900     0.8350 os         1 PEU      -0.437000
     54 CBI         10.9500    -1.8350    -0.3110 c3         1 PEU       0.162600
     55 CBH         11.7420    -0.5440     0.0060 c3         1 PEU       0.161600
     56 OBG         12.8120    -0.8590     0.9200 os         1 PEU      -0.438000
     57 CBF         13.6090     0.2760     1.3160 c3         1 PEU       0.162600
     58 CBE         14.7510    -0.2060     2.2430 c3         1 PEU       0.161600
     59 OBD         15.7260    -0.9170     1.4540 os         1 PEU      -0.437000
     60 CCH         16.8600    -1.4030     2.1990 c3         1 PEU       0.162600
     61 CCI         17.8290    -2.1230     1.2310 c3         1 PEU       0.162600
     62 OCJ         18.4600    -1.1430     0.3830 os         1 PEU      -0.436000
     63 CCK         19.3800    -1.6900    -0.5820 c3         1 PEU       0.162600
     64 CCL         19.9630    -0.5370    -1.4330 c3         1 PEU       0.162600
     65 OCM         20.8830     0.2270    -0.6280 os         1 PEU      -0.436000
     66 CCN         21.4660     1.3600    -1.3030 c3         1 PEU       0.162600
     67 CCO         22.4460     2.0730    -0.3410 c3         1 PEU       0.162600
     68 OCP         23.6310     1.2640    -0.1920 os         1 PEU      -0.437000
     69 CCQ         24.6280     1.8240     0.6850 c3         1 PEU       0.162600
     70 CCR         25.8510     0.8770     0.7290 c3         1 PEU       0.162600
     71 OCS         26.5490     0.9520    -0.5300 os         1 PEU      -0.436000
     72 CCT         27.7140     0.1080    -0.6200 c3         1 PEU       0.162600
     73 CCU         28.3620     0.2880    -2.0140 c3         1 PEU       0.161600
     74 OCV         28.9840     1.5870    -2.0800 os         1 PEU      -0.436000
     75 CCW         29.6090     1.8860    -3.3440 c3         1 PEU       0.162600
     76 CCX         30.2430     3.2960    -3.2730 c3         1 PEU       0.162600
     77 OCY         31.4110     3.2450    -2.4310 os         1 PEU      -0.436000
     78 CCZ         32.0880     4.5080    -2.2730 c3         1 PEU       0.162600
     79 CDA         33.3250     4.3090    -1.3640 c3         1 PEU       0.161600
     80 ODB         34.3350     3.5820    -2.0930 os         1 PEU      -0.435000
     81 CDC         35.5380     3.3190    -1.3430 c3         1 PEU       0.160600
     82 CDD         36.5420     2.5440    -2.2380 c3         1 PEU       0.163600
     83 ODE         37.0420     3.3650    -3.3130 oh         1 PEU      -0.709000
     84 HAA1       -37.5200     3.1650    -4.6020 h1         1 PEU       0.026700
     85 HAA2       -36.9780     4.8250    -4.9340 h1         1 PEU       0.026700
     86 HAA3       -35.9880     3.4400    -5.4610 h1         1 PEU       0.026700
     87 HAC1       -34.0430     4.3490    -4.1430 h1         1 PEU       0.029200
     88 HAC2       -35.0390     5.7120    -3.5890 h1         1 PEU       0.029200
     89 HAD1       -33.3570     5.3820    -1.9010 h1         1 PEU       0.026200
     90 HAD2       -34.8760     4.7680    -1.2110 h1         1 PEU       0.026200
     91 HAF1       -32.0770     3.8480    -0.3730 h1         1 PEU       0.027200
     92 HAF2       -33.5940     3.1790     0.2690 h1         1 PEU       0.027200
     93 HAG1       -31.9360     1.4510     0.5230 h1         1 PEU       0.027700
     94 HAG2       -32.9820     0.9410    -0.8210 h1         1 PEU       0.027700
     95 HAI1       -30.0660     0.0660    -0.4460 h1         1 PEU       0.027700
     96 HAI2       -31.0950    -0.3890    -1.8230 h1         1 PEU       0.027700
     97 HAJ1       -28.8260    -0.5130    -2.6170 h1         1 PEU       0.027200
     98 HAJ2       -29.5240     0.9530    -3.3420 h1         1 PEU       0.027200
     99 HAL1       -26.5410     0.5320    -2.8580 h1         1 PEU       0.027700
    100 HAL2       -27.2600     2.0290    -3.4920 h1         1 PEU       0.027700
    101 HAM1       -25.1940     2.6840    -2.4590 h1         1 PEU       0.027200
    102 HAM2       -26.4780     3.2130    -1.3490 h1         1 PEU       0.027200
    103 HAO1       -23.6120     2.6010    -0.5100 h1         1 PEU       0.027700
    104 HAO2       -24.9140     3.0300     0.6230 h1         1 PEU       0.027700
    105 HAP1       -23.3150     1.7620     1.8960 h1         1 PEU       0.027700
    106 HAP2       -24.7010     0.6790     1.6330 h1         1 PEU       0.027700
    107 HAR1       -21.8190    -0.2430     2.1310 h1         1 PEU       0.027200
    108 HAR2       -23.1840    -1.3330     1.8040 h1         1 PEU       0.027200
    109 HAS1       -21.1970    -2.5060     1.1060 h1         1 PEU       0.027200
    110 HAS2       -22.0320    -2.0050    -0.3820 h1         1 PEU       0.027200
    111 HAU1       -19.0170    -2.5310    -0.1780 h1         1 PEU       0.027700
    112 HAU2       -19.8610    -1.9670    -1.6380 h1         1 PEU       0.027700
    113 HAV1       -17.5940    -1.2040    -1.8570 h1         1 PEU       0.028200
    114 HAV2       -18.5550     0.2340    -1.4460 h1         1 PEU       0.028200
    115 HAX1       -15.5850    -0.0300    -0.8810 h1         1 PEU       0.027700
    116 HAX2       -16.5840     1.3460    -0.3610 h1         1 PEU       0.027700
    117 HAY1       -14.7370     1.2760     1.1660 h1         1 PEU       0.027700
    118 HAY2       -16.1270     0.6390     2.0720 h1         1 PEU       0.027700
    119 HBA1       -13.2070    -0.0070     2.6710 h1         1 PEU       0.027700
    120 HBA2       -14.5800    -0.7380     3.5330 h1         1 PEU       0.027700
    121 HBB1       -12.7480    -2.2920     3.7270 h1         1 PEU       0.027700
    122 HBB2       -13.8860    -3.0060     2.5620 h1         1 PEU       0.027700
    123 HCG1       -10.8550    -3.5720     2.6640 h1         1 PEU       0.027700
    124 HCG2       -11.9860    -4.2620     1.4790 h1         1 PEU       0.027700
    125 HCF1        -9.8210    -4.2550     0.4200 h1         1 PEU       0.027700
    126 HCF2       -10.7610    -2.9560    -0.3490 h1         1 PEU       0.027700
    127 HCD1        -7.7180    -2.9920    -0.2390 h1         1 PEU       0.028200
    128 HCD2        -8.6970    -1.6630    -0.8990 h1         1 PEU       0.028200
    129 HCC1        -6.6300    -0.6550    -0.2340 h1         1 PEU       0.028200
    130 HCC2        -7.8070    -0.1830     1.0110 h1         1 PEU       0.028200
    131 HCA1        -4.8240    -0.3150     1.4700 h1         1 PEU       0.027200
    132 HCA2        -5.9980     0.0060     2.7650 h1         1 PEU       0.027200
    133 HBZ1        -4.0560    -0.9050     3.8450 h1         1 PEU       0.027200
    134 HBZ2        -5.2680    -2.2060     3.8550 h1         1 PEU       0.027200
    135 HBX1        -2.2160    -2.5980     3.9410 h1         1 PEU       0.027200
    136 HBX2        -3.4000    -3.9240     3.9070 h1         1 PEU       0.027200
    137 HBW1        -1.3530    -4.7970     2.9660 h1         1 PEU       0.027200
    138 HBW2        -2.4890    -4.5920     1.6140 h1         1 PEU       0.027200
    139 HBU1         0.5820    -4.5510     1.3510 h1         1 PEU       0.027200
    140 HBU2        -0.5740    -4.3180     0.0200 h1         1 PEU       0.027200
    141 HBT1         1.4390    -3.1820    -0.6460 h1         1 PEU       0.027700
    142 HBT2         0.2780    -1.9120    -0.2000 h1         1 PEU       0.027700
    143 HBR1         3.2840    -1.5310    -0.1280 h1         1 PEU       0.028200
    144 HBR2         2.1070    -0.3270     0.4410 h1         1 PEU       0.028200
    145 HBQ1         4.1270     0.1460     1.6370 h1         1 PEU       0.028200
    146 HBQ2         3.0600    -0.6540     2.8120 h1         1 PEU       0.028200
    147 HBO1         6.0960    -0.6230     2.9680 h1         1 PEU       0.028200
    148 HBO2         5.0640    -1.5340     4.0930 h1         1 PEU       0.028200
    149 HBN1         7.2050    -2.6400     4.0880 h1         1 PEU       0.028200
    150 HBN2         6.1010    -3.6930     3.1760 h1         1 PEU       0.028200
    151 HBL1         9.1680    -3.5760     2.8220 h1         1 PEU       0.027700
    152 HBL2         8.0680    -4.6180     1.8890 h1         1 PEU       0.027700
    153 HBK1        10.0020    -4.2500     0.4960 h1         1 PEU       0.028200
    154 HBK2         8.6850    -3.2820    -0.2030 h1         1 PEU       0.028200
    155 HBI1        11.6480    -2.6410    -0.5730 h1         1 PEU       0.028200
    156 HBI2        10.3040    -1.6480    -1.1790 h1         1 PEU       0.028200
    157 HBH1        12.1510    -0.1410    -0.9300 h1         1 PEU       0.028700
    158 HBH2        11.0650     0.2070     0.4330 h1         1 PEU       0.028700
    159 HBF1        14.0370     0.7830     0.4410 h1         1 PEU       0.028700
    160 HBF2        12.9910     1.0010     1.8620 h1         1 PEU       0.028700
    161 HBE1        15.2130     0.6700     2.7170 h1         1 PEU       0.028200
    162 HBE2        14.3390    -0.8460     3.0340 h1         1 PEU       0.028200
    163 HCH1        17.3860    -0.5790     2.6990 h1         1 PEU       0.027700
    164 HCH2        16.5320    -2.1150     2.9680 h1         1 PEU       0.027700
    165 HCI1        18.5840    -2.6600     1.8190 h1         1 PEU       0.027700
    166 HCI2        17.2720    -2.8590     0.6360 h1         1 PEU       0.027700
    167 HCK1        20.1970    -2.2320    -0.0860 h1         1 PEU       0.027700
    168 HCK2        18.8600    -2.3920    -1.2470 h1         1 PEU       0.027700
    169 HCL1        20.4830    -0.9640    -2.3000 h1         1 PEU       0.027700
    170 HCL2        19.1450     0.0940    -1.8040 h1         1 PEU       0.027700
    171 HCN1        22.0020     1.0470    -2.2080 h1         1 PEU       0.028200
    172 HCN2        20.6820     2.0690    -1.5980 h1         1 PEU       0.028200
    173 HCO1        22.7070     3.0520    -0.7640 h1         1 PEU       0.027700
    174 HCO2        21.9570     2.2390     0.6280 h1         1 PEU       0.027700
    175 HCQ1        24.9460     2.8160     0.3400 h1         1 PEU       0.028200
    176 HCQ2        24.2250     1.9290     1.7010 h1         1 PEU       0.028200
    177 HCR1        26.5120     1.1890     1.5480 h1         1 PEU       0.028200
    178 HCR2        25.5150    -0.1490     0.9340 h1         1 PEU       0.028200
    179 HCT1        28.4450     0.3600     0.1610 h1         1 PEU       0.027700
    180 HCT2        27.4300    -0.9450    -0.4950 h1         1 PEU       0.027700
    181 HCU1        29.1120    -0.5000    -2.1610 h1         1 PEU       0.028200
    182 HCU2        27.5940     0.1790    -2.7910 h1         1 PEU       0.028200
    183 HCW1        30.3830     1.1470    -3.5870 h1         1 PEU       0.027700
    184 HCW2        28.8610     1.8740    -4.1480 h1         1 PEU       0.027700
    185 HCX1        30.5200     3.6100    -4.2880 h1         1 PEU       0.027700
    186 HCX2        29.5060     4.0110    -2.8840 h1         1 PEU       0.027700
    187 HCZ1        32.4070     4.9100    -3.2430 h1         1 PEU       0.028200
    188 HCZ2        31.4190     5.2410    -1.8030 h1         1 PEU       0.028200
    189 HDA1        33.7070     5.2940    -1.0650 h1         1 PEU       0.028200
    190 HDA2        33.0290     3.7680    -0.4550 h1         1 PEU       0.028200
    191 HDC1        36.0000     4.2550    -0.9990 h1         1 PEU       0.026200
    192 HDC2        35.3090     2.7100    -0.4590 h1         1 PEU       0.026200
    193 HDD1        37.3770     2.2060    -1.6100 h1         1 PEU       0.025200
    194 HDD2        36.0470     1.6480    -2.6360 h1         1 PEU       0.025200
    195 HDE         37.6220     2.7910    -3.8650 ho         1 PEU       0.499000
@<TRIPOS>BOND
     1     1     2 1   
     2     1    84 1   
     3     1    85 1   
     4     1    86 1   
     5     2     3 1   
     6     3     4 1   
     7     3    87 1   
     8     3    88 1   
     9     4     5 1   
    10     4    89 1   
    11     4    90 1   
    12     5     6 1   
    13     6     7 1   
    14     6    91 1   
    15     6    92 1   
    16     7     8 1   
    17     7    93 1   
    18     7    94 1   
    19     8     9 1   
    20     9    10 1   
    21     9    95 1   
    22     9    96 1   
    23    10    11 1   
    24    10    97 1   
    25    10    98 1   
    26    11    12 1   
    27    12    13 1   
    28    12    99 1   
    29    12   100 1   
    30    13    14 1   
    31    13   101 1   
    32    13   102 1   
    33    14    15 1   
    34    15    16 1   
    35    15   103 1   
    36    15   104 1   
    37    16    17 1   
    38    16   105 1   
    39    16   106 1   
    40    17    18 1   
    41    18    19 1   
    42    18   107 1   
    43    18   108 1   
    44    19    20 1   
    45    19   109 1   
    46    19   110 1   
    47    20    21 1   
    48    21    22 1   
    49    21   111 1   
    50    21   112 1   
    51    22    23 1   
    52    22   113 1   
    53    22   114 1   
    54    23    24 1   
    55    24    25 1   
    56    24   115 1   
    57    24   116 1   
    58    25    26 1   
    59    25   117 1   
    60    25   118 1   
    61    26    27 1   
    62    27    28 1   
    63    27   119 1   
    64    27   120 1   
    65    28    29 1   
    66    28   121 1   
    67    28   122 1   
    68    29    30 1   
    69    30    31 1   
    70    30   123 1   
    71    30   124 1   
    72    31    32 1   
    73    31   125 1   
    74    31   126 1   
    75    32    33 1   
    76    33    34 1   
    77    33   127 1   
    78    33   128 1   
    79    34    35 1   
    80    34   129 1   
    81    34   130 1   
    82    35    36 1   
    83    36    37 1   
    84    36   131 1   
    85    36   132 1   
    86    37    38 1   
    87    37   133 1   
    88    37   134 1   
    89    38    39 1   
    90    39    40 1   
    91    39   135 1   
    92    39   136 1   
    93    40    41 1   
    94    40   137 1   
    95    40   138 1   
    96    41    42 1   
    97    42    43 1   
    98    42   139 1   
    99    42   140 1   
   100    43    44 1   
   101    43   141 1   
   102    43   142 1   
   103    44    45 1   
   104    45    46 1   
   105    45   143 1   
   106    45   144 1   
   107    46    47 1   
   108    46   145 1   
   109    46   146 1   
   110    47    48 1   
   111    48    49 1   
   112    48   147 1   
   113    48   148 1   
   114    49    50 1   
   115    49   149 1   
   116    49   150 1   
   117    50    51 1   
   118    51    52 1   
   119    51   151 1   
   120    51   152 1   
   121    52    53 1   
   122    52   153 1   
   123    52   154 1   
   124    53    54 1   
   125    54    55 1   
   126    54   155 1   
   127    54   156 1   
   128    55    56 1   
   129    55   157 1   
   130    55   158 1   
   131    56    57 1   
   132    57    58 1   
   133    57   159 1   
   134    57   160 1   
   135    58    59 1   
   136    58   161 1   
   137    58   162 1   
   138    59    60 1   
   139    60    61 1   
   140    60   163 1   
   141    60   164 1   
   142    61    62 1   
   143    61   165 1   
   144    61   166 1   
   145    62    63 1   
   146    63    64 1   
   147    63   167 1   
   148    63   168 1   
   149    64    65 1   
   150    64   169 1   
   151    64   170 1   
   152    65    66 1   
   153    66    67 1   
   154    66   171 1   
   155    66   172 1   
   156    67    68 1   
   157    67   173 1   
   158    67   174 1   
   159    68    69 1   
   160    69    70 1   
   161    69   175 1   
   162    69   176 1   
   163    70    71 1   
   164    70   177 1   
   165    70   178 1   
   166    71    72 1   
   167    72    73 1   
   168    72   179 1   
   169    72   180 1   
   170    73    74 1   
   171    73   181 1   
   172    73   182 1   
   173    74    75 1   
   174    75    76 1   
   175    75   183 1   
   176    75   184 1   
   177    76    77 1   
   178    76   185 1   
   179    76   186 1   
   180    77    78 1   
   181    78    79 1   
   182    78   187 1   
   183    78   188 1   
   184    79    80 1   
   185    79   189 1   
   186    79   190 1   
   187    80    81 1   
   188    81    82 1   
   189    81   191 1   
   190    81   192 1   
   191    82    83 1   
   192    82   193 1   
   193    82   194 1   
   194    83   195 1   
@<TRIPOS>SUBSTRUCTURE
     1 PEU         1 TEMP              0 ****  ****    0 ROOT
