@<TRIPOS>MOLECULE
PEV
  126   125     1     0     0
SMALL
bcc


@<TRIPOS>ATOM
      1 C48         20.5580     6.7620    -0.8990 c3         1 PEV      -0.088100
      2 C47         19.8100     5.4820    -0.5520 c3         1 PEV      -0.075400
      3 C46         18.3150     5.5750    -0.8330 c3         1 PEV      -0.075400
      4 C45         17.5570     4.2990    -0.4890 c3         1 PEV      -0.074400
      5 C44         16.0610     4.3940    -0.7600 c3         1 PEV      -0.074400
      6 C43         15.3050     3.1190    -0.4060 c3         1 PEV      -0.074400
      7 C42         13.8060     3.2110    -0.6610 c3         1 PEV      -0.074400
      8 C41         13.0570     1.9400    -0.2860 c3         1 PEV      -0.074400
      9 C40         11.5530     2.0270    -0.5180 c3         1 PEV      -0.074400
     10 C39         10.8130     0.7600    -0.1100 c3         1 PEV      -0.074400
     11 C38          9.3040     0.8430    -0.3070 c3         1 PEV      -0.074400
     12 C37          8.5760    -0.4170     0.1420 c3         1 PEV      -0.074400
     13 C36          7.0620    -0.3320    -0.0070 c3         1 PEV      -0.074400
     14 C35          6.3450    -1.5840     0.4820 c3         1 PEV      -0.074400
     15 C34          4.8270    -1.4850     0.3940 c3         1 PEV      -0.076400
     16 C33          4.1240    -2.7370     0.9040 c3         1 PEV      -0.066400
     17 C32          2.6100    -2.5870     0.8800 c3         1 PEV      -0.141400
     18 C31          1.8800    -3.8010     1.3860 c          1 PEV       0.652100
     19 O31          2.3240    -4.9220     1.3860 o          1 PEV      -0.561000
     20 O2           0.6620    -3.4910     1.8220 os         1 PEV      -0.396900
     21 C2          -0.2000    -4.5340     2.2930 c3         1 PEV       0.126100
     22 C1          -0.9390    -5.1810     1.1360 c3         1 PEV       0.185400
     23 O3P         -1.6210    -4.1970     0.3970 os         1 PEV      -0.558200
     24 P           -2.3300    -4.6600    -1.0100 p5         1 PEV       1.394800
     25 O1P         -1.3280    -4.6130    -2.1240 o          1 PEV      -0.826500
     26 O2P         -3.1360    -5.9050    -0.7980 o          1 PEV      -0.826500
     27 O4P         -3.2990    -3.3400    -1.0750 os         1 PEV      -0.579200
     28 C4          -4.0670    -3.1360    -2.2490 c3         1 PEV       0.195400
     29 C5          -4.8150    -1.8290    -2.1180 c3         1 PEV       0.146800
     30 N6          -3.8970    -0.7040    -2.0470 n8         1 PEV      -0.884800
     31 C3          -1.0760    -3.9330     3.3730 c3         1 PEV       0.154400
     32 O3          -1.8570    -2.8390     2.9090 os         1 PEV      -0.410900
     33 C11         -3.1360    -3.0340     2.5830 c          1 PEV       0.671100
     34 O11         -3.7190    -4.0740     2.7450 o          1 PEV      -0.536000
     35 C12         -3.7410    -1.7720     2.0360 c3         1 PEV      -0.132400
     36 C13         -5.2370    -1.8590     1.7870 c3         1 PEV      -0.067400
     37 C14         -5.8100    -0.5220     1.3340 c3         1 PEV      -0.073400
     38 C15         -7.3120    -0.5630     1.0890 c3         1 PEV      -0.075400
     39 C16         -7.8710     0.7750     0.6210 c3         1 PEV      -0.074400
     40 C17         -9.3870     0.7820     0.4720 c3         1 PEV      -0.074400
     41 C18         -9.9360     2.1250     0.0050 c3         1 PEV      -0.074400
     42 C19        -11.4580     2.1760    -0.0350 c3         1 PEV      -0.074400
     43 C20        -12.0020     3.5170    -0.5120 c3         1 PEV      -0.074400
     44 C21        -13.5230     3.5940    -0.4860 c3         1 PEV      -0.074400
     45 C22        -14.0670     4.9320    -0.9720 c3         1 PEV      -0.074400
     46 C23        -15.5870     5.0220    -0.9150 c3         1 PEV      -0.074400
     47 C24        -16.1310     6.3580    -1.4050 c3         1 PEV      -0.075400
     48 C25        -17.6490     6.4570    -1.3300 c3         1 PEV      -0.075400
     49 C26        -18.1800     7.7950    -1.8260 c3         1 PEV      -0.088100
     50 H481        20.4590     7.0020    -1.9590 hc         1 PEV       0.030367
     51 H482        20.1690     7.6100    -0.3330 hc         1 PEV       0.030367
     52 H483        21.6230     6.6780    -0.6780 hc         1 PEV       0.030367
     53 H471        20.2330     4.6450    -1.1170 hc         1 PEV       0.036200
     54 H472        19.9640     5.2400     0.5040 hc         1 PEV       0.036200
     55 H461        17.8920     6.4130    -0.2680 hc         1 PEV       0.036700
     56 H462        18.1610     5.8170    -1.8910 hc         1 PEV       0.036700
     57 H451        17.9770     3.4620    -1.0580 hc         1 PEV       0.036700
     58 H452        17.7170     4.0550     0.5670 hc         1 PEV       0.036700
     59 H441        15.6410     5.2330    -0.1940 hc         1 PEV       0.036700
     60 H442        15.8980     4.6330    -1.8170 hc         1 PEV       0.036700
     61 H431        15.7200     2.2800    -0.9760 hc         1 PEV       0.036700
     62 H432        15.4750     2.8780     0.6500 hc         1 PEV       0.036700
     63 H421        13.3930     4.0550    -0.0970 hc         1 PEV       0.037200
     64 H422        13.6310     3.4420    -1.7180 hc         1 PEV       0.037200
     65 H411        13.4640     1.0960    -0.8550 hc         1 PEV       0.036200
     66 H412        13.2430     1.7080     0.7680 hc         1 PEV       0.036200
     67 H401        11.1490     2.8780     0.0410 hc         1 PEV       0.037200
     68 H402        11.3600     2.2420    -1.5750 hc         1 PEV       0.037200
     69 H391        11.2080    -0.0910    -0.6780 hc         1 PEV       0.036200
     70 H392        11.0240     0.5420     0.9430 hc         1 PEV       0.036200
     71 H381         8.9140     1.7040     0.2480 hc         1 PEV       0.036700
     72 H382         9.0830     1.0400    -1.3620 hc         1 PEV       0.036700
     73 H371         8.9510    -1.2760    -0.4250 hc         1 PEV       0.036200
     74 H372         8.8210    -0.6190     1.1910 hc         1 PEV       0.036200
     75 H361         6.6920     0.5360     0.5510 hc         1 PEV       0.037200
     76 H362         6.8060    -0.1480    -1.0560 hc         1 PEV       0.037200
     77 H351         6.6890    -2.4500    -0.0950 hc         1 PEV       0.036700
     78 H352         6.6310    -1.7800     1.5210 hc         1 PEV       0.036700
     79 H341         4.4890    -0.6160     0.9690 hc         1 PEV       0.038700
     80 H342         4.5310    -1.2950    -0.6440 hc         1 PEV       0.038700
     81 H331         4.4250    -3.5960     0.2990 hc         1 PEV       0.048700
     82 H332         4.4540    -2.9450     1.9260 hc         1 PEV       0.048700
     83 H321         2.3000    -1.7110     1.4540 hc         1 PEV       0.076700
     84 H322         2.2650    -2.4080    -0.1450 hc         1 PEV       0.076700
     85 H2           0.3850    -5.3170     2.7840 h1         1 PEV       0.048700
     86 H11         -0.2150    -5.7180     0.5120 h1         1 PEV       0.039700
     87 H12         -1.6220    -5.9280     1.5520 h1         1 PEV       0.039700
     88 H41         -3.4220    -3.1020    -3.1350 h1         1 PEV       0.030200
     89 H42         -4.7870    -3.9500    -2.3910 h1         1 PEV       0.030200
     90 H51         -5.4390    -1.7180    -3.0080 h1         1 PEV       0.014200
     91 H52         -5.5010    -1.9000    -1.2620 h1         1 PEV       0.014200
     92 HN61        -4.4200     0.1590    -1.9610 hn         1 PEV       0.332300
     93 HN62        -3.3390    -0.7740    -1.2060 hn         1 PEV       0.332300
     94 H31         -1.6990    -4.7190     3.8000 h1         1 PEV       0.051700
     95 H32         -0.4440    -3.5380     4.1700 h1         1 PEV       0.051700
     96 H121        -3.5130    -0.9540     2.7280 hc         1 PEV       0.071200
     97 H122        -3.2150    -1.5310     1.1070 hc         1 PEV       0.071200
     98 H131        -5.4340    -2.6190     1.0270 hc         1 PEV       0.059200
     99 H132        -5.7510    -2.1810     2.6960 hc         1 PEV       0.059200
    100 H141        -5.5900     0.2420     2.0870 hc         1 PEV       0.030700
    101 H142        -5.3020    -0.1980     0.4190 hc         1 PEV       0.030700
    102 H151        -7.5420    -1.3350     0.3470 hc         1 PEV       0.040700
    103 H152        -7.8210    -0.8660     2.0110 hc         1 PEV       0.040700
    104 H161        -7.5800     1.5560     1.3330 hc         1 PEV       0.034700
    105 H162        -7.4060     1.0470    -0.3330 hc         1 PEV       0.034700
    106 H171        -9.6930    -0.0010    -0.2310 hc         1 PEV       0.037200
    107 H172        -9.8430     0.5200     1.4330 hc         1 PEV       0.037200
    108 H181        -9.5690     2.9150     0.6710 hc         1 PEV       0.035700
    109 H182        -9.5340     2.3570    -0.9870 hc         1 PEV       0.035700
    110 H191       -11.8350     1.3790    -0.6860 hc         1 PEV       0.037200
    111 H192       -11.8500     1.9610     0.9650 hc         1 PEV       0.037200
    112 H201       -11.5900     4.3180     0.1130 hc         1 PEV       0.036700
    113 H202       -11.6440     3.7140    -1.5290 hc         1 PEV       0.036700
    114 H211       -13.9400     2.7880    -1.1000 hc         1 PEV       0.036700
    115 H212       -13.8760     3.4100     0.5350 hc         1 PEV       0.036700
    116 H221       -13.6340     5.7400    -0.3710 hc         1 PEV       0.036200
    117 H222       -13.7310     5.1090    -2.0000 hc         1 PEV       0.036200
    118 H231       -16.0220     4.2120    -1.5110 hc         1 PEV       0.036200
    119 H232       -15.9200     4.8510     0.1150 hc         1 PEV       0.036200
    120 H241       -15.6860     7.1690    -0.8170 hc         1 PEV       0.036200
    121 H242       -15.8070     6.5250    -2.4390 hc         1 PEV       0.036200
    122 H251       -18.0940     5.6450    -1.9150 hc         1 PEV       0.036200
    123 H252       -17.9710     6.2950    -0.2970 hc         1 PEV       0.036200
    124 H261       -17.7590     8.6220    -1.2520 hc         1 PEV       0.029700
    125 H262       -17.9210     7.9570    -2.8740 hc         1 PEV       0.029700
    126 H263       -19.2660     7.8530    -1.7420 hc         1 PEV       0.029700
@<TRIPOS>BOND
     1     1     2 1   
     2     1    50 1   
     3     1    51 1   
     4     1    52 1   
     5     2     3 1   
     6     2    53 1   
     7     2    54 1   
     8     3     4 1   
     9     3    55 1   
    10     3    56 1   
    11     4     5 1   
    12     4    57 1   
    13     4    58 1   
    14     5     6 1   
    15     5    59 1   
    16     5    60 1   
    17     6     7 1   
    18     6    61 1   
    19     6    62 1   
    20     7     8 1   
    21     7    63 1   
    22     7    64 1   
    23     8     9 1   
    24     8    65 1   
    25     8    66 1   
    26     9    10 1   
    27     9    67 1   
    28     9    68 1   
    29    10    11 1   
    30    10    69 1   
    31    10    70 1   
    32    11    12 1   
    33    11    71 1   
    34    11    72 1   
    35    12    13 1   
    36    12    73 1   
    37    12    74 1   
    38    13    14 1   
    39    13    75 1   
    40    13    76 1   
    41    14    15 1   
    42    14    77 1   
    43    14    78 1   
    44    15    16 1   
    45    15    79 1   
    46    15    80 1   
    47    16    17 1   
    48    16    81 1   
    49    16    82 1   
    50    17    18 1   
    51    17    83 1   
    52    17    84 1   
    53    18    19 2   
    54    18    20 1   
    55    20    21 1   
    56    21    22 1   
    57    21    31 1   
    58    21    85 1   
    59    22    23 1   
    60    22    86 1   
    61    22    87 1   
    62    23    24 1   
    63    24    25 1   
    64    24    26 1   
    65    24    27 1   
    66    27    28 1   
    67    28    29 1   
    68    28    88 1   
    69    28    89 1   
    70    29    30 1   
    71    29    90 1   
    72    29    91 1   
    73    30    92 1   
    74    30    93 1   
    75    31    32 1   
    76    31    94 1   
    77    31    95 1   
    78    32    33 1   
    79    33    34 2   
    80    33    35 1   
    81    35    36 1   
    82    35    96 1   
    83    35    97 1   
    84    36    37 1   
    85    36    98 1   
    86    36    99 1   
    87    37    38 1   
    88    37   100 1   
    89    37   101 1   
    90    38    39 1   
    91    38   102 1   
    92    38   103 1   
    93    39    40 1   
    94    39   104 1   
    95    39   105 1   
    96    40    41 1   
    97    40   106 1   
    98    40   107 1   
    99    41    42 1   
   100    41   108 1   
   101    41   109 1   
   102    42    43 1   
   103    42   110 1   
   104    42   111 1   
   105    43    44 1   
   106    43   112 1   
   107    43   113 1   
   108    44    45 1   
   109    44   114 1   
   110    44   115 1   
   111    45    46 1   
   112    45   116 1   
   113    45   117 1   
   114    46    47 1   
   115    46   118 1   
   116    46   119 1   
   117    47    48 1   
   118    47   120 1   
   119    47   121 1   
   120    48    49 1   
   121    48   122 1   
   122    48   123 1   
   123    49   124 1   
   124    49   125 1   
   125    49   126 1   
@<TRIPOS>SUBSTRUCTURE
     1 PEV         1 TEMP              0 ****  ****    0 ROOT
