@<TRIPOS>MOLECULE
PEV
  126   125     1     0     0
SMALL
No Charge or Current Charge


@<TRIPOS>ATOM
      1 C48         21.2470     6.3300    -0.2640 c3         1 PEV      -0.088100
      2 C47         20.2780     5.3430     0.4130 c3         1 PEV      -0.075400
      3 C46         18.9400     5.1930    -0.3430 c3         1 PEV      -0.075400
      4 C45         17.9690     4.2020     0.3370 c3         1 PEV      -0.074400
      5 C44         16.6310     4.0530    -0.4200 c3         1 PEV      -0.074400
      6 C43         15.6600     3.0620     0.2600 c3         1 PEV      -0.074400
      7 C42         14.3220     2.9130    -0.4970 c3         1 PEV      -0.074400
      8 C41         13.3510     1.9230     0.1830 c3         1 PEV      -0.074400
      9 C40         12.0130     1.7730    -0.5740 c3         1 PEV      -0.074400
     10 C39         11.0420     0.7830     0.1060 c3         1 PEV      -0.074400
     11 C38          9.7040     0.6330    -0.6510 c3         1 PEV      -0.074400
     12 C37          8.7330    -0.3570     0.0290 c3         1 PEV      -0.074400
     13 C36          7.3950    -0.5070    -0.7270 c3         1 PEV      -0.074400
     14 C35          6.4240    -1.4960    -0.0470 c3         1 PEV      -0.074400
     15 C34          5.0850    -1.6460    -0.8040 c3         1 PEV      -0.076400
     16 C33          4.1140    -2.6350    -0.1230 c3         1 PEV      -0.066400
     17 C32          2.7740    -2.7840    -0.8810 c3         1 PEV      -0.141400
     18 C31          1.8370    -3.7640    -0.1710 c          1 PEV       0.603100
     19 O31          1.8850    -4.9760    -0.3300 o          1 PEV      -0.512000
     20 O2           1.0660    -3.1300     0.7690 os         1 PEV      -0.420100
     21 C2           0.1000    -3.8970     1.5320 c3         1 PEV       0.149300
     22 C1          -1.0520    -4.4020     0.6010 c3         1 PEV       0.208600
     23 O3P         -1.5310    -3.3290    -0.2280 os         1 PEV      -0.581400
     24 P           -2.7220    -3.6050    -1.2740 p5         1 PEV       1.394800
     25 O1P         -2.8330    -2.4840    -2.2520 o          1 PEV      -0.826500
     26 O2P         -2.5540    -4.9290    -1.9410 o          1 PEV      -0.826500
     27 O4P         -3.9390    -3.6020    -0.2180 os         1 PEV      -0.602400
     28 C4          -5.2700    -4.0240    -0.5710 c3         1 PEV       0.218600
     29 C5          -6.0200    -2.9220    -1.3890 c3         1 PEV       0.146800
     30 N6          -5.6050    -2.7980    -2.8050 n8         1 PEV      -0.995200
     31 C3          -0.3250    -3.0440     2.7670 c3         1 PEV       0.177600
     32 O3          -1.2000    -1.9560     2.3900 os         1 PEV      -0.434100
     33 C11         -2.5580    -2.1540     2.4260 c          1 PEV       0.622100
     34 O11         -3.1000    -3.1200     2.9490 o          1 PEV      -0.487000
     35 C12         -3.3120    -0.9330     1.8870 c3         1 PEV      -0.132400
     36 C13         -4.8500    -0.9710     2.0560 c3         1 PEV      -0.067400
     37 C14         -5.5600     0.2210     1.3800 c3         1 PEV      -0.073400
     38 C15         -7.0970     0.1580     1.5080 c3         1 PEV      -0.075400
     39 C16         -7.8100     1.3440     0.8220 c3         1 PEV      -0.074400
     40 C17         -9.3480     1.2790     0.9480 c3         1 PEV      -0.074400
     41 C18        -10.0610     2.4650     0.2620 c3         1 PEV      -0.074400
     42 C19        -11.5990     2.4010     0.3890 c3         1 PEV      -0.074400
     43 C20        -12.3110     3.5870    -0.2970 c3         1 PEV      -0.074400
     44 C21        -13.8490     3.5230    -0.1700 c3         1 PEV      -0.074400
     45 C22        -14.5620     4.7090    -0.8550 c3         1 PEV      -0.074400
     46 C23        -16.1000     4.6450    -0.7280 c3         1 PEV      -0.074400
     47 C24        -16.8130     5.8310    -1.4140 c3         1 PEV      -0.075400
     48 C25        -18.3510     5.7680    -1.2870 c3         1 PEV      -0.075400
     49 C26        -19.0620     6.9510    -1.9700 c3         1 PEV      -0.088100
     50 H481        21.4920     5.9980    -1.2800 hc         1 PEV       0.030367
     51 H482        20.8030     7.3310    -0.3240 hc         1 PEV       0.030367
     52 H483        22.1800     6.4030     0.3070 hc         1 PEV       0.030367
     53 H471        20.7650     4.3620     0.4900 hc         1 PEV       0.036200
     54 H472        20.0810     5.6830     1.4380 hc         1 PEV       0.036200
     55 H461        18.4580     6.1750    -0.4190 hc         1 PEV       0.036700
     56 H462        19.1420     4.8540    -1.3670 hc         1 PEV       0.036700
     57 H451        18.4520     3.2200     0.4130 hc         1 PEV       0.036700
     58 H452        17.7680     4.5410     1.3610 hc         1 PEV       0.036700
     59 H441        16.1490     5.0350    -0.4960 hc         1 PEV       0.036700
     60 H442        16.8320     3.7140    -1.4440 hc         1 PEV       0.036700
     61 H431        16.1430     2.0800     0.3360 hc         1 PEV       0.036700
     62 H432        15.4590     3.4010     1.2840 hc         1 PEV       0.036700
     63 H421        13.8400     3.8950    -0.5730 hc         1 PEV       0.037200
     64 H422        14.5230     2.5740    -1.5210 hc         1 PEV       0.037200
     65 H411        13.8340     0.9400     0.2590 hc         1 PEV       0.036200
     66 H412        13.1500     2.2610     1.2070 hc         1 PEV       0.036200
     67 H401        11.5300     2.7550    -0.6500 hc         1 PEV       0.037200
     68 H402        12.2140     1.4340    -1.5980 hc         1 PEV       0.037200
     69 H391        11.5240    -0.2000     0.1820 hc         1 PEV       0.036200
     70 H392        10.8410     1.1210     1.1300 hc         1 PEV       0.036200
     71 H381         9.2210     1.6160    -0.7270 hc         1 PEV       0.036700
     72 H382         9.9050     0.2940    -1.6750 hc         1 PEV       0.036700
     73 H371         9.2150    -1.3400     0.1050 hc         1 PEV       0.036200
     74 H372         8.5320    -0.0180     1.0530 hc         1 PEV       0.036200
     75 H361         6.9120     0.4760    -0.8030 hc         1 PEV       0.037200
     76 H362         7.5960    -0.8450    -1.7510 hc         1 PEV       0.037200
     77 H351         6.9060    -2.4790     0.0290 hc         1 PEV       0.036700
     78 H352         6.2230    -1.1580     0.9770 hc         1 PEV       0.036700
     79 H341         4.6030    -0.6630    -0.8800 hc         1 PEV       0.038700
     80 H342         5.2860    -1.9840    -1.8280 hc         1 PEV       0.038700
     81 H331         4.5960    -3.6180    -0.0460 hc         1 PEV       0.048700
     82 H332         3.9140    -2.2970     0.9020 hc         1 PEV       0.048700
     83 H321         2.2970    -1.7980    -0.9110 hc         1 PEV       0.076700
     84 H322         2.9720    -3.1490    -1.8950 hc         1 PEV       0.076700
     85 H2           0.5930    -4.7870     1.9450 h1         1 PEV       0.048700
     86 H11         -0.6760    -5.2250    -0.0190 h1         1 PEV       0.039700
     87 H12         -1.8620    -4.8100     1.2200 h1         1 PEV       0.039700
     88 H41         -5.2510    -4.9620    -1.1410 h1         1 PEV       0.030200
     89 H42         -5.8400    -4.2150     0.3480 h1         1 PEV       0.030200
     90 H51         -7.0960    -3.1410    -1.3750 h1         1 PEV       0.014200
     91 H52         -5.8710    -1.9510    -0.9000 h1         1 PEV       0.014200
     92 HN61        -6.0210    -1.9480    -3.2000 hn         1 PEV       0.387500
     93 HN62        -4.5900    -2.5930    -2.8030 hn         1 PEV       0.387500
     94 H31         -0.7860    -3.6920     3.5240 h1         1 PEV       0.051700
     95 H32          0.5880    -2.6380     3.2200 h1         1 PEV       0.051700
     96 H121        -2.8660    -0.0350     2.3290 hc         1 PEV       0.071200
     97 H122        -3.0170    -0.8160     0.8380 hc         1 PEV       0.071200
     98 H131        -5.2360    -1.9040     1.6290 hc         1 PEV       0.059200
     99 H132        -5.0960    -0.9850     3.1250 hc         1 PEV       0.059200
    100 H141        -5.1970     1.1560     1.8240 hc         1 PEV       0.030700
    101 H142        -5.2890     0.2460     0.3170 hc         1 PEV       0.030700
    102 H151        -7.4570    -0.7810     1.0680 hc         1 PEV       0.040700
    103 H152        -7.3700     0.1390     2.5710 hc         1 PEV       0.040700
    104 H161        -7.4510     2.2830     1.2620 hc         1 PEV       0.034700
    105 H162        -7.5360     1.3620    -0.2410 hc         1 PEV       0.034700
    106 H171        -9.7060     0.3400     0.5080 hc         1 PEV       0.037200
    107 H172        -9.6210     1.2600     2.0100 hc         1 PEV       0.037200
    108 H181        -9.7020     3.4040     0.7020 hc         1 PEV       0.035700
    109 H182        -9.7870     2.4840    -0.8000 hc         1 PEV       0.035700
    110 H191       -11.9570     1.4620    -0.0520 hc         1 PEV       0.037200
    111 H192       -11.8720     2.3810     1.4510 hc         1 PEV       0.037200
    112 H201       -11.9530     4.5260     0.1430 hc         1 PEV       0.036700
    113 H202       -12.0380     3.6060    -1.3590 hc         1 PEV       0.036700
    114 H211       -14.2080     2.5840    -0.6100 hc         1 PEV       0.036700
    115 H212       -14.1230     3.5030     0.8930 hc         1 PEV       0.036700
    116 H221       -14.2030     5.6480    -0.4150 hc         1 PEV       0.036200
    117 H222       -14.2890     4.7280    -1.9180 hc         1 PEV       0.036200
    118 H231       -16.4590     3.7060    -1.1690 hc         1 PEV       0.036200
    119 H232       -16.3730     4.6260     0.3340 hc         1 PEV       0.036200
    120 H241       -16.4540     6.7700    -0.9730 hc         1 PEV       0.036200
    121 H242       -16.5400     5.8510    -2.4760 hc         1 PEV       0.036200
    122 H251       -18.7140     4.8310    -1.7280 hc         1 PEV       0.036200
    123 H252       -18.6280     5.7500    -0.2250 hc         1 PEV       0.036200
    124 H261       -18.7460     7.9030    -1.5260 hc         1 PEV       0.029700
    125 H262       -18.8330     6.9750    -3.0420 hc         1 PEV       0.029700
    126 H263       -20.1490     6.8620    -1.8540 hc         1 PEV       0.029700
@<TRIPOS>BOND
     1     1     2 1   
     2     1    50 1   
     3     1    51 1   
     4     1    52 1   
     5     2     3 1   
     6     2    53 1   
     7     2    54 1   
     8     3     4 1   
     9     3    55 1   
    10     3    56 1   
    11     4     5 1   
    12     4    57 1   
    13     4    58 1   
    14     5     6 1   
    15     5    59 1   
    16     5    60 1   
    17     6     7 1   
    18     6    61 1   
    19     6    62 1   
    20     7     8 1   
    21     7    63 1   
    22     7    64 1   
    23     8     9 1   
    24     8    65 1   
    25     8    66 1   
    26     9    10 1   
    27     9    67 1   
    28     9    68 1   
    29    10    11 1   
    30    10    69 1   
    31    10    70 1   
    32    11    12 1   
    33    11    71 1   
    34    11    72 1   
    35    12    13 1   
    36    12    73 1   
    37    12    74 1   
    38    13    14 1   
    39    13    75 1   
    40    13    76 1   
    41    14    15 1   
    42    14    77 1   
    43    14    78 1   
    44    15    16 1   
    45    15    79 1   
    46    15    80 1   
    47    16    17 1   
    48    16    81 1   
    49    16    82 1   
    50    17    18 1   
    51    17    83 1   
    52    17    84 1   
    53    18    19 2   
    54    18    20 1   
    55    20    21 1   
    56    21    22 1   
    57    21    31 1   
    58    21    85 1   
    59    22    23 1   
    60    22    86 1   
    61    22    87 1   
    62    23    24 1   
    63    24    25 1   
    64    24    26 1   
    65    24    27 1   
    66    27    28 1   
    67    28    29 1   
    68    28    88 1   
    69    28    89 1   
    70    29    30 1   
    71    29    90 1   
    72    29    91 1   
    73    30    92 1   
    74    30    93 1   
    75    31    32 1   
    76    31    94 1   
    77    31    95 1   
    78    32    33 1   
    79    33    34 2   
    80    33    35 1   
    81    35    36 1   
    82    35    96 1   
    83    35    97 1   
    84    36    37 1   
    85    36    98 1   
    86    36    99 1   
    87    37    38 1   
    88    37   100 1   
    89    37   101 1   
    90    38    39 1   
    91    38   102 1   
    92    38   103 1   
    93    39    40 1   
    94    39   104 1   
    95    39   105 1   
    96    40    41 1   
    97    40   106 1   
    98    40   107 1   
    99    41    42 1   
   100    41   108 1   
   101    41   109 1   
   102    42    43 1   
   103    42   110 1   
   104    42   111 1   
   105    43    44 1   
   106    43   112 1   
   107    43   113 1   
   108    44    45 1   
   109    44   114 1   
   110    44   115 1   
   111    45    46 1   
   112    45   116 1   
   113    45   117 1   
   114    46    47 1   
   115    46   118 1   
   116    46   119 1   
   117    47    48 1   
   118    47   120 1   
   119    47   121 1   
   120    48    49 1   
   121    48   122 1   
   122    48   123 1   
   123    49   124 1   
   124    49   125 1   
   125    49   126 1   
@<TRIPOS>SUBSTRUCTURE
     1 PEV         1 TEMP              0 ****  ****    0 ROOT
