@<TRIPOS>MOLECULE
PEW
  126   125     1     0     0
SMALL
No Charge or Current Charge


@<TRIPOS>ATOM
      1 C48        -15.8130     8.4650     0.5280 c3         1 PEW      -0.088100
      2 C47        -15.2000     7.1700     1.0960 c3         1 PEW      -0.075400
      3 C46        -13.9900     6.6650     0.2810 c3         1 PEW      -0.075400
      4 C45        -13.3720     5.3700     0.8540 c3         1 PEW      -0.075400
      5 C44        -12.1650     4.8640     0.0340 c3         1 PEW      -0.074400
      6 C43        -11.5430     3.5700     0.6040 c3         1 PEW      -0.074400
      7 C42        -10.3470     3.0630    -0.2300 c3         1 PEW      -0.075400
      8 C41         -9.7200     1.7660     0.3380 c3         1 PEW      -0.076400
      9 C40         -8.4940     1.2530    -0.4620 c3         1 PEW       0.111300
     10 Br2         -9.0340     0.7210    -2.3190 br         1 PEW      -0.259000
     11 C39         -7.7280     0.1040     0.2580 c3         1 PEW       0.112300
     12 Br1         -8.8770    -1.5290     0.4510 br         1 PEW      -0.259000
     13 C38         -6.3800    -0.2510    -0.4260 c3         1 PEW      -0.075400
     14 C37         -5.4880    -1.2250     0.3820 c3         1 PEW      -0.076400
     15 C36         -4.1490    -1.5330    -0.3260 c3         1 PEW      -0.073400
     16 C35         -3.2770    -2.5520     0.4390 c3         1 PEW      -0.075400
     17 C34         -1.9700    -2.9100    -0.3030 c3         1 PEW      -0.076400
     18 C33         -1.1420    -3.9960     0.4200 c3         1 PEW      -0.067400
     19 C32          0.1220    -4.4220    -0.3650 c3         1 PEW      -0.142400
     20 C31          0.8240    -5.6050     0.3060 c          1 PEW       0.598100
     21 O31          0.4100    -6.7550     0.2360 o          1 PEW      -0.517000
     22 O2           1.9030    -5.2050     1.0540 os         1 PEW      -0.416100
     23 C2           2.6620    -6.2140     1.7710 c3         1 PEW       0.152300
     24 C1           3.4210    -7.1870     0.7990 c3         1 PEW       0.214600
     25 O3P          3.6210    -6.6420    -0.5260 os         1 PEW      -0.562400
     26 P            4.9910    -5.9350    -1.0050 p5         1 PEW       1.384800
     27 O1P          6.1780    -6.5380    -0.3290 o          1 PEW      -0.831000
     28 O2P          5.1380    -6.0120    -2.4870 o          1 PEW      -0.831000
     29 O4P          4.7200    -4.4270    -0.5040 os         1 PEW      -0.573400
     30 C4           3.7860    -3.5460    -1.1470 c3         1 PEW       0.226600
     31 C5           4.4770    -2.7410    -2.2960 c3         1 PEW       0.143800
     32 N6           4.6150    -3.4690    -3.5800 n8         1 PEW      -0.981200
     33 C3           3.5280    -5.5360     2.8670 c3         1 PEW       0.174600
     34 O3           4.7190    -4.9690     2.2980 os         1 PEW      -0.410100
     35 C11          5.6090    -4.3590     3.1400 c          1 PEW       0.624100
     36 O11          5.4700    -4.2850     4.3540 o          1 PEW      -0.515000
     37 C12          6.8780    -3.9160     2.4100 c3         1 PEW      -0.143400
     38 C13          6.9400    -2.3810     2.2240 c3         1 PEW      -0.060400
     39 C14          8.2680    -1.9190     1.5820 c3         1 PEW      -0.077400
     40 C15          8.4030    -0.3840     1.4770 c3         1 PEW      -0.075400
     41 C16          9.7700     0.0540     0.9040 c3         1 PEW      -0.074400
     42 C17          9.9560     1.5870     0.8660 c3         1 PEW      -0.075400
     43 C18         11.3480     2.0100     0.3470 c3         1 PEW      -0.074400
     44 C19         11.5610     3.5400     0.3600 c3         1 PEW      -0.074400
     45 C20         12.9710     3.9580    -0.1140 c3         1 PEW      -0.074400
     46 C21         13.2000     5.4860    -0.0650 c3         1 PEW      -0.074400
     47 C22         14.6190     5.8970    -0.5180 c3         1 PEW      -0.074400
     48 C23         14.8620     7.4220    -0.4520 c3         1 PEW      -0.074400
     49 C24         16.2880     7.8260    -0.8910 c3         1 PEW      -0.075400
     50 C25         16.5350     9.3490    -0.8200 c3         1 PEW      -0.075400
     51 C26         17.9580     9.7520    -1.2560 c3         1 PEW      -0.088100
     52 H481       -15.0740     9.2750     0.5250 hc         1 PEW       0.031033
     53 H482       -16.1640     8.3100    -0.4990 hc         1 PEW       0.031033
     54 H483       -16.6670     8.7820     1.1380 hc         1 PEW       0.031033
     55 H471       -15.9720     6.3910     1.1210 hc         1 PEW       0.036200
     56 H472       -14.8910     7.3480     2.1340 hc         1 PEW       0.036200
     57 H461       -13.2220     7.4480     0.2530 hc         1 PEW       0.037200
     58 H462       -14.3030     6.4870    -0.7560 hc         1 PEW       0.037200
     59 H451       -14.1400     4.5870     0.8840 hc         1 PEW       0.037200
     60 H452       -13.0550     5.5490     1.8890 hc         1 PEW       0.037200
     61 H441       -11.3980     5.6480     0.0020 hc         1 PEW       0.038700
     62 H442       -12.4840     4.6850    -1.0000 hc         1 PEW       0.038700
     63 H431       -12.3120     2.7880     0.6440 hc         1 PEW       0.038700
     64 H432       -11.2150     3.7510     1.6350 hc         1 PEW       0.038700
     65 H421        -9.5790     3.8460    -0.2720 hc         1 PEW       0.046700
     66 H422       -10.6850     2.8920    -1.2590 hc         1 PEW       0.046700
     67 H411       -10.4880     0.9840     0.3730 hc         1 PEW       0.057700
     68 H412        -9.4130     1.9540     1.3740 hc         1 PEW       0.057700
     69 H40         -7.7980     2.0920    -0.5970 h1         1 PEW       0.078700
     70 H39         -7.5170     0.4260     1.2860 h1         1 PEW       0.077700
     71 H381        -5.8170     0.6760    -0.5940 hc         1 PEW       0.058200
     72 H382        -6.5760    -0.6840    -1.4130 hc         1 PEW       0.058200
     73 H371        -6.0240    -2.1680     0.5440 hc         1 PEW       0.046200
     74 H372        -5.2850    -0.7970     1.3720 hc         1 PEW       0.046200
     75 H361        -3.5860    -0.6000    -0.4570 hc         1 PEW       0.038700
     76 H362        -4.3590    -1.9240    -1.3290 hc         1 PEW       0.038700
     77 H351        -3.8590    -3.4690     0.6000 hc         1 PEW       0.039200
     78 H352        -3.0330    -2.1500     1.4310 hc         1 PEW       0.039200
     79 H341        -1.3590    -2.0060    -0.4220 hc         1 PEW       0.037700
     80 H342        -2.2190    -3.2630    -1.3120 hc         1 PEW       0.037700
     81 H331        -1.7770    -4.8780     0.5780 hc         1 PEW       0.050200
     82 H332        -0.8490    -3.6340     1.4130 hc         1 PEW       0.050200
     83 H321         0.8030    -3.5650    -0.4100 hc         1 PEW       0.073200
     84 H322        -0.1740    -4.7240    -1.3770 hc         1 PEW       0.073200
     85 H2           1.9570    -6.8380     2.3350 h1         1 PEW       0.050700
     86 H11          4.3730    -7.4840     1.2570 h1         1 PEW       0.032700
     87 H12          2.8260    -8.1060     0.7160 h1         1 PEW       0.032700
     88 H41          2.9240    -4.0980    -1.5440 h1         1 PEW       0.018700
     89 H42          3.4040    -2.8300    -0.4080 h1         1 PEW       0.018700
     90 H51          3.8980    -1.8290    -2.4920 h1         1 PEW       0.017200
     91 H52          5.4780    -2.4350    -1.9630 h1         1 PEW       0.017200
     92 HN61         4.9630    -4.4180    -3.3480 hn         1 PEW       0.378000
     93 HN62         3.6800    -3.6600    -3.9550 hn         1 PEW       0.378000
     94 H31          3.7940    -6.2940     3.6150 h1         1 PEW       0.054700
     95 H32          2.9310    -4.7650     3.3710 h1         1 PEW       0.054700
     96 H121         6.9040    -4.3770     1.4170 hc         1 PEW       0.090200
     97 H122         7.7430    -4.2380     3.0000 hc         1 PEW       0.090200
     98 H131         6.8260    -1.8960     3.2020 hc         1 PEW       0.043200
     99 H132         6.0970    -2.0540     1.6020 hc         1 PEW       0.043200
    100 H141         8.3570    -2.3600     0.5810 hc         1 PEW       0.040700
    101 H142         9.1050    -2.3080     2.1770 hc         1 PEW       0.040700
    102 H151         8.2740     0.0570     2.4740 hc         1 PEW       0.034700
    103 H152         7.5980     0.0110     0.8440 hc         1 PEW       0.034700
    104 H161         9.8840    -0.3510    -0.1100 hc         1 PEW       0.035200
    105 H162        10.5700    -0.3860     1.5150 hc         1 PEW       0.035200
    106 H171         9.8120     1.9910     1.8760 hc         1 PEW       0.035700
    107 H172         9.1800     2.0310     0.2290 hc         1 PEW       0.035700
    108 H181        11.4830     1.6340    -0.6760 hc         1 PEW       0.036200
    109 H182        12.1210     1.5350     0.9660 hc         1 PEW       0.036200
    110 H191        11.4000     3.9160     1.3790 hc         1 PEW       0.036200
    111 H192        10.8080     4.0160    -0.2800 hc         1 PEW       0.036200
    112 H201        13.1270     3.6020    -1.1400 hc         1 PEW       0.036700
    113 H202        13.7230     3.4630     0.5140 hc         1 PEW       0.036700
    114 H211        13.0330     5.8420     0.9600 hc         1 PEW       0.036200
    115 H212        12.4580     5.9840    -0.7020 hc         1 PEW       0.036200
    116 H221        14.7830     5.5510    -1.5470 hc         1 PEW       0.036700
    117 H222        15.3590     5.3880     0.1130 hc         1 PEW       0.036700
    118 H231        14.6900     7.7700     0.5750 hc         1 PEW       0.036200
    119 H232        14.1300     7.9330    -1.0900 hc         1 PEW       0.036200
    120 H241        16.4600     7.4800    -1.9180 hc         1 PEW       0.036700
    121 H242        17.0200     7.3130    -0.2530 hc         1 PEW       0.036700
    122 H251        16.3650     9.6980     0.2070 hc         1 PEW       0.035700
    123 H252        15.8070     9.8660    -1.4580 hc         1 PEW       0.035700
    124 H261        18.0840    10.8390    -1.1880 hc         1 PEW       0.030033
    125 H262        18.7100     9.2790    -0.6120 hc         1 PEW       0.030033
    126 H263        18.1470     9.4480    -2.2930 hc         1 PEW       0.030033
@<TRIPOS>BOND
     1     1     2 1   
     2     1    52 1   
     3     1    53 1   
     4     1    54 1   
     5     2     3 1   
     6     2    55 1   
     7     2    56 1   
     8     3     4 1   
     9     3    57 1   
    10     3    58 1   
    11     4     5 1   
    12     4    59 1   
    13     4    60 1   
    14     5     6 1   
    15     5    61 1   
    16     5    62 1   
    17     6     7 1   
    18     6    63 1   
    19     6    64 1   
    20     7     8 1   
    21     7    65 1   
    22     7    66 1   
    23     8     9 1   
    24     8    67 1   
    25     8    68 1   
    26     9    10 1   
    27     9    11 1   
    28     9    69 1   
    29    11    12 1   
    30    11    13 1   
    31    11    70 1   
    32    13    14 1   
    33    13    71 1   
    34    13    72 1   
    35    14    15 1   
    36    14    73 1   
    37    14    74 1   
    38    15    16 1   
    39    15    75 1   
    40    15    76 1   
    41    16    17 1   
    42    16    77 1   
    43    16    78 1   
    44    17    18 1   
    45    17    79 1   
    46    17    80 1   
    47    18    19 1   
    48    18    81 1   
    49    18    82 1   
    50    19    20 1   
    51    19    83 1   
    52    19    84 1   
    53    20    21 2   
    54    20    22 1   
    55    22    23 1   
    56    23    24 1   
    57    23    33 1   
    58    23    85 1   
    59    24    25 1   
    60    24    86 1   
    61    24    87 1   
    62    25    26 1   
    63    26    27 1   
    64    26    28 1   
    65    26    29 1   
    66    29    30 1   
    67    30    31 1   
    68    30    88 1   
    69    30    89 1   
    70    31    32 1   
    71    31    90 1   
    72    31    91 1   
    73    32    92 1   
    74    32    93 1   
    75    33    34 1   
    76    33    94 1   
    77    33    95 1   
    78    34    35 1   
    79    35    36 2   
    80    35    37 1   
    81    37    38 1   
    82    37    96 1   
    83    37    97 1   
    84    38    39 1   
    85    38    98 1   
    86    38    99 1   
    87    39    40 1   
    88    39   100 1   
    89    39   101 1   
    90    40    41 1   
    91    40   102 1   
    92    40   103 1   
    93    41    42 1   
    94    41   104 1   
    95    41   105 1   
    96    42    43 1   
    97    42   106 1   
    98    42   107 1   
    99    43    44 1   
   100    43   108 1   
   101    43   109 1   
   102    44    45 1   
   103    44   110 1   
   104    44   111 1   
   105    45    46 1   
   106    45   112 1   
   107    45   113 1   
   108    46    47 1   
   109    46   114 1   
   110    46   115 1   
   111    47    48 1   
   112    47   116 1   
   113    47   117 1   
   114    48    49 1   
   115    48   118 1   
   116    48   119 1   
   117    49    50 1   
   118    49   120 1   
   119    49   121 1   
   120    50    51 1   
   121    50   122 1   
   122    50   123 1   
   123    51   124 1   
   124    51   125 1   
   125    51   126 1   
@<TRIPOS>SUBSTRUCTURE
     1 PEW         1 TEMP              0 ****  ****    0 ROOT
