@<TRIPOS>MOLECULE
PEW
  126   125     1     0     0
SMALL
abcg2


@<TRIPOS>ATOM
      1 C48        -17.5730     7.3210     0.3390 c3         1 PEW      -0.088100
      2 C47        -16.8910     5.9800     0.5700 c3         1 PEW      -0.075400
      3 C46        -15.4010     6.0080     0.2500 c3         1 PEW      -0.075400
      4 C45        -14.7170     4.6640     0.4620 c3         1 PEW      -0.075400
      5 C44        -13.2310     4.6790     0.1270 c3         1 PEW      -0.074400
      6 C43        -12.5710     3.3170     0.2970 c3         1 PEW      -0.074400
      7 C42        -11.0930     3.3090    -0.0720 c3         1 PEW      -0.075400
      8 C41        -10.5000     1.9090     0.0260 c3         1 PEW      -0.076400
      9 C40         -9.0090     1.8190    -0.2480 c3         1 PEW       0.111300
     10 BR2         -8.6220     2.2710    -2.1340 br         1 PEW      -0.259000
     11 C39         -8.3670     0.4970     0.1360 c3         1 PEW       0.112300
     12 BR1         -9.1830    -0.9990    -0.8700 br         1 PEW      -0.259000
     13 C38         -6.8540     0.4520     0.0170 c3         1 PEW      -0.075400
     14 C37         -6.2010    -0.7570     0.6730 c3         1 PEW      -0.076400
     15 C36         -4.6800    -0.7180     0.5780 c3         1 PEW      -0.073400
     16 C35         -4.0300    -1.9820     1.1260 c3         1 PEW      -0.075400
     17 C34         -2.5110    -1.9840     1.0070 c3         1 PEW      -0.076400
     18 C33         -1.8920    -3.2950     1.4740 c3         1 PEW      -0.067400
     19 C32         -0.3780    -3.2920     1.3380 c3         1 PEW      -0.142400
     20 C31          0.2660    -4.5970     1.7170 c          1 PEW       0.598100
     21 O31         -0.3290    -5.6140     1.9750 o          1 PEW      -0.517000
     22 O2           1.5930    -4.4980     1.7190 os         1 PEW      -0.416100
     23 C2           2.3800    -5.6630     1.9980 c3         1 PEW       0.152300
     24 C1           2.6190    -6.4780     0.7390 c3         1 PEW       0.214600
     25 O3P          3.3390    -5.7710    -0.2450 os         1 PEW      -0.562400
     26 P            4.8080    -6.3690    -0.6810 p5         1 PEW       1.384800
     27 O1P          5.7350    -6.4050     0.4970 o          1 PEW      -0.831000
     28 O2P          4.6220    -7.6170    -1.4940 o          1 PEW      -0.831000
     29 O4P          5.1530    -5.1050    -1.6600 os         1 PEW      -0.573400
     30 C4           6.1890    -5.2900    -2.6080 c3         1 PEW       0.226600
     31 C5           6.6510    -3.9570    -3.1520 c3         1 PEW       0.143800
     32 N6           7.2830    -3.1400    -2.1310 n8         1 PEW      -0.981200
     33 C3           3.6300    -5.2050     2.7150 c3         1 PEW       0.174600
     34 O3           4.2580    -4.1730     1.9680 os         1 PEW      -0.410100
     35 C11          5.5240    -3.8890     2.2490 c          1 PEW       0.624100
     36 O11          6.1290    -4.3950     3.1630 o          1 PEW      -0.515000
     37 C12          6.0770    -2.8490     1.3180 c3         1 PEW      -0.143400
     38 C13          7.3780    -2.2350     1.8130 c3         1 PEW      -0.060400
     39 C14          7.8800    -1.1300     0.8920 c3         1 PEW      -0.077400
     40 C15          9.1740    -0.4930     1.3800 c3         1 PEW      -0.075400
     41 C16          9.7240     0.5620     0.4290 c3         1 PEW      -0.074400
     42 C17         10.9460     1.2870     0.9820 c3         1 PEW      -0.075400
     43 C18         11.6010     2.2250    -0.0240 c3         1 PEW      -0.074400
     44 C19         12.6870     3.1020     0.5880 c3         1 PEW      -0.074400
     45 C20         13.4310     3.9450    -0.4410 c3         1 PEW      -0.074400
     46 C21         14.4530     4.8910     0.1760 c3         1 PEW      -0.074400
     47 C22         15.2260     5.6980    -0.8590 c3         1 PEW      -0.074400
     48 C23         16.2260     6.6700    -0.2440 c3         1 PEW      -0.074400
     49 C24         17.0090     7.4660    -1.2810 c3         1 PEW      -0.075400
     50 C25         18.0000     8.4460    -0.6660 c3         1 PEW      -0.075400
     51 C26         18.7810     9.2340    -1.7090 c3         1 PEW      -0.088100
     52 H481       -17.1270     8.1030     0.9560 hc         1 PEW       0.031033
     53 H482       -17.4830     7.6350    -0.7030 hc         1 PEW       0.031033
     54 H483       -18.6360     7.2770     0.5800 hc         1 PEW       0.031033
     55 H471       -17.3750     5.2110    -0.0400 hc         1 PEW       0.036200
     56 H472       -17.0310     5.6710     1.6110 hc         1 PEW       0.036200
     57 H461       -14.9120     6.7700     0.8670 hc         1 PEW       0.037200
     58 H462       -15.2610     6.3260    -0.7890 hc         1 PEW       0.037200
     59 H451       -15.2160     3.9040    -0.1500 hc         1 PEW       0.037200
     60 H452       -14.8510     4.3470     1.5030 hc         1 PEW       0.037200
     61 H441       -12.7210     5.4170     0.7560 hc         1 PEW       0.038700
     62 H442       -13.0970     5.0180    -0.9060 hc         1 PEW       0.038700
     63 H431       -13.0990     2.5830    -0.3240 hc         1 PEW       0.038700
     64 H432       -12.6920     2.9790     1.3320 hc         1 PEW       0.038700
     65 H421       -10.5440     3.9920     0.5840 hc         1 PEW       0.046700
     66 H422       -10.9770     3.6960    -1.0880 hc         1 PEW       0.046700
     67 H411       -11.0520     1.2290    -0.6260 hc         1 PEW       0.057700
     68 H412       -10.6420     1.5390     1.0490 hc         1 PEW       0.057700
     69 H40         -8.4870     2.5880     0.3310 h1         1 PEW       0.078700
     70 H39         -8.6550     0.3180     1.1770 h1         1 PEW       0.077700
     71 H381        -6.4810     1.3620     0.5020 hc         1 PEW       0.058200
     72 H382        -6.5500     0.5160    -1.0300 hc         1 PEW       0.058200
     73 H371        -6.5570    -1.6780     0.2020 hc         1 PEW       0.046200
     74 H372        -6.5010    -0.8130     1.7250 hc         1 PEW       0.046200
     75 H361        -4.2960     0.1580     1.1120 hc         1 PEW       0.038700
     76 H362        -4.3860    -0.5880    -0.4690 hc         1 PEW       0.038700
     77 H351        -4.4330    -2.8500     0.5920 hc         1 PEW       0.039200
     78 H352        -4.3130    -2.1150     2.1760 hc         1 PEW       0.039200
     79 H341        -2.0950    -1.1500     1.5820 hc         1 PEW       0.037700
     80 H342        -2.2300    -1.8030    -0.0370 hc         1 PEW       0.037700
     81 H331        -2.3160    -4.1170     0.8920 hc         1 PEW       0.050200
     82 H332        -2.1690    -3.4790     2.5160 hc         1 PEW       0.050200
     83 H321         0.0660    -2.4920     1.9370 hc         1 PEW       0.073200
     84 H322        -0.0910    -3.0740     0.3030 hc         1 PEW       0.073200
     85 H2           1.8490    -6.3190     2.6960 h1         1 PEW       0.050700
     86 H11          3.1210    -7.4010     1.0510 h1         1 PEW       0.032700
     87 H12          1.6550    -6.7820     0.3210 h1         1 PEW       0.032700
     88 H41          7.0480    -5.8110    -2.1660 h1         1 PEW       0.018700
     89 H42          5.8380    -5.9060    -3.4430 h1         1 PEW       0.018700
     90 H51          7.3040    -4.1790    -4.0090 h1         1 PEW       0.017200
     91 H52          5.7920    -3.4140    -3.5560 h1         1 PEW       0.017200
     92 HN61         8.1180    -3.6040    -1.7950 hn         1 PEW       0.378000
     93 HN62         7.5960    -2.2690    -2.5390 hn         1 PEW       0.378000
     94 H31          4.2930    -6.0620     2.8400 h1         1 PEW       0.054700
     95 H32          3.3700    -4.8310     3.7090 h1         1 PEW       0.054700
     96 H121         5.3190    -2.0720     1.1750 hc         1 PEW       0.090200
     97 H122         6.2190    -3.3080     0.3330 hc         1 PEW       0.090200
     98 H131         8.1440    -3.0110     1.8980 hc         1 PEW       0.043200
     99 H132         7.2400    -1.8310     2.8210 hc         1 PEW       0.043200
    100 H141         7.1100    -0.3560     0.7980 hc         1 PEW       0.040700
    101 H142         8.0210    -1.5380    -0.1130 hc         1 PEW       0.040700
    102 H151         9.9300    -1.2720     1.5260 hc         1 PEW       0.034700
    103 H152         9.0070    -0.0450     2.3660 hc         1 PEW       0.034700
    104 H161         8.9440     1.2980     0.2080 hc         1 PEW       0.035200
    105 H162         9.9760     0.0900    -0.5270 hc         1 PEW       0.035200
    106 H171        11.6840     0.5520     1.3220 hc         1 PEW       0.035700
    107 H172        10.6500     1.8510     1.8730 hc         1 PEW       0.035700
    108 H181        10.8390     2.8650    -0.4810 hc         1 PEW       0.036200
    109 H182        12.0250     1.6330    -0.8420 hc         1 PEW       0.036200
    110 H191        13.4050     2.4750     1.1290 hc         1 PEW       0.036200
    111 H192        12.2350     3.7580     1.3390 hc         1 PEW       0.036200
    112 H201        12.7090     4.5250    -1.0260 hc         1 PEW       0.036700
    113 H202        13.9330     3.2810    -1.1530 hc         1 PEW       0.036700
    114 H211        15.1580     4.3190     0.7890 hc         1 PEW       0.036200
    115 H212        13.9430     5.5760     0.8630 hc         1 PEW       0.036200
    116 H221        14.5210     6.2530    -1.4870 hc         1 PEW       0.036700
    117 H222        15.7530     5.0110    -1.5310 hc         1 PEW       0.036700
    118 H231        16.9260     6.1180     0.3920 hc         1 PEW       0.036200
    119 H232        15.6960     7.3630     0.4190 hc         1 PEW       0.036200
    120 H241        16.3090     8.0130    -1.9230 hc         1 PEW       0.036700
    121 H242        17.5450     6.7730    -1.9400 hc         1 PEW       0.036700
    122 H251        18.6970     7.9000    -0.0220 hc         1 PEW       0.035700
    123 H252        17.4630     9.1390    -0.0110 hc         1 PEW       0.035700
    124 H261        19.4820     9.9300    -1.2460 hc         1 PEW       0.030033
    125 H262        19.3550     8.5680    -2.3560 hc         1 PEW       0.030033
    126 H263        18.1120     9.8130    -2.3470 hc         1 PEW       0.030033
@<TRIPOS>BOND
     1     1     2 1   
     2     1    52 1   
     3     1    53 1   
     4     1    54 1   
     5     2     3 1   
     6     2    55 1   
     7     2    56 1   
     8     3     4 1   
     9     3    57 1   
    10     3    58 1   
    11     4     5 1   
    12     4    59 1   
    13     4    60 1   
    14     5     6 1   
    15     5    61 1   
    16     5    62 1   
    17     6     7 1   
    18     6    63 1   
    19     6    64 1   
    20     7     8 1   
    21     7    65 1   
    22     7    66 1   
    23     8     9 1   
    24     8    67 1   
    25     8    68 1   
    26     9    10 1   
    27     9    11 1   
    28     9    69 1   
    29    11    12 1   
    30    11    13 1   
    31    11    70 1   
    32    13    14 1   
    33    13    71 1   
    34    13    72 1   
    35    14    15 1   
    36    14    73 1   
    37    14    74 1   
    38    15    16 1   
    39    15    75 1   
    40    15    76 1   
    41    16    17 1   
    42    16    77 1   
    43    16    78 1   
    44    17    18 1   
    45    17    79 1   
    46    17    80 1   
    47    18    19 1   
    48    18    81 1   
    49    18    82 1   
    50    19    20 1   
    51    19    83 1   
    52    19    84 1   
    53    20    21 2   
    54    20    22 1   
    55    22    23 1   
    56    23    24 1   
    57    23    33 1   
    58    23    85 1   
    59    24    25 1   
    60    24    86 1   
    61    24    87 1   
    62    25    26 1   
    63    26    27 1   
    64    26    28 1   
    65    26    29 1   
    66    29    30 1   
    67    30    31 1   
    68    30    88 1   
    69    30    89 1   
    70    31    32 1   
    71    31    90 1   
    72    31    91 1   
    73    32    92 1   
    74    32    93 1   
    75    33    34 1   
    76    33    94 1   
    77    33    95 1   
    78    34    35 1   
    79    35    36 2   
    80    35    37 1   
    81    37    38 1   
    82    37    96 1   
    83    37    97 1   
    84    38    39 1   
    85    38    98 1   
    86    38    99 1   
    87    39    40 1   
    88    39   100 1   
    89    39   101 1   
    90    40    41 1   
    91    40   102 1   
    92    40   103 1   
    93    41    42 1   
    94    41   104 1   
    95    41   105 1   
    96    42    43 1   
    97    42   106 1   
    98    42   107 1   
    99    43    44 1   
   100    43   108 1   
   101    43   109 1   
   102    44    45 1   
   103    44   110 1   
   104    44   111 1   
   105    45    46 1   
   106    45   112 1   
   107    45   113 1   
   108    46    47 1   
   109    46   114 1   
   110    46   115 1   
   111    47    48 1   
   112    47   116 1   
   113    47   117 1   
   114    48    49 1   
   115    48   118 1   
   116    48   119 1   
   117    49    50 1   
   118    49   120 1   
   119    49   121 1   
   120    50    51 1   
   121    50   122 1   
   122    50   123 1   
   123    51   124 1   
   124    51   125 1   
   125    51   126 1   
@<TRIPOS>SUBSTRUCTURE
     1 PEW         1 TEMP              0 ****  ****    0 ROOT
