@<TRIPOS>MOLECULE
PEX
   84    83     1     0     0
SMALL
bcc


@<TRIPOS>ATOM
      1 O1           1.2290     5.4090    -0.7200 o          1 PEX      -0.831500
      2 O2           2.2040     3.3580    -1.9500 o          1 PEX      -0.831500
      3 P1           1.4010     3.9210    -0.8160 p5         1 PEX       1.383800
      4 O3          -0.0700     3.1920    -0.7260 os         1 PEX      -0.539200
      5 C1          -0.9370     3.3500    -1.8260 c3         1 PEX       0.192400
      6 C2          -1.2470     2.0450    -2.5380 c3         1 PEX       0.128100
      7 C3          -0.0420     1.3120    -3.0850 c3         1 PEX       0.150400
      8 O4           0.6970     0.7440    -2.0130 os         1 PEX      -0.387900
      9 C4           1.9470     0.3720    -2.2570 c          1 PEX       0.675100
     10 O5           2.4390     0.3900    -3.3590 o          1 PEX      -0.563000
     11 C5           2.6330    -0.1100    -1.0100 c3         1 PEX      -0.140400
     12 C6           4.0140    -0.6930    -1.2680 c3         1 PEX      -0.061400
     13 C7           4.6300    -1.2900    -0.0100 c3         1 PEX      -0.078400
     14 C8           6.0380    -1.8230    -0.2400 c3         1 PEX      -0.075400
     15 C9           6.6710    -2.4200     1.0100 c3         1 PEX      -0.074400
     16 C10          8.0760    -2.9590     0.7700 c3         1 PEX      -0.075400
     17 C11          8.7150    -3.5590     2.0160 c3         1 PEX      -0.075400
     18 C12         10.1210    -4.0950     1.7720 c3         1 PEX      -0.075400
     19 C13         10.7490    -4.6990     3.0200 c3         1 PEX      -0.088100
     20 O6          -1.9520     1.1340    -1.6870 os         1 PEX      -0.393900
     21 C14         -3.2800     1.2030    -1.6220 c          1 PEX       0.647100
     22 O7          -3.9380     2.0070    -2.2330 o          1 PEX      -0.565000
     23 C15         -3.8350     0.1590    -0.6920 c3         1 PEX      -0.142400
     24 C16         -5.3510     0.0420    -0.7390 c3         1 PEX      -0.066400
     25 C17         -5.8630    -1.0480     0.1930 c3         1 PEX      -0.076400
     26 C18         -7.3760    -1.2180     0.1320 c3         1 PEX      -0.074400
     27 C19         -7.8930    -2.3190     1.0480 c3         1 PEX      -0.074400
     28 C20         -9.4030    -2.5070     0.9730 c3         1 PEX      -0.074400
     29 C21         -9.9170    -3.6180     1.8800 c3         1 PEX      -0.075400
     30 C22        -11.4270    -3.8090     1.8040 c3         1 PEX      -0.075400
     31 C23        -11.9300    -4.9270     2.7060 c3         1 PEX      -0.088100
     32 O8           1.9060     3.3210     0.6200 os         1 PEX      -0.547200
     33 C24          3.0690     3.9090     1.1750 c3         1 PEX       0.199400
     34 C25          3.5730     3.0920     2.3440 c3         1 PEX       0.144800
     35 N1           4.0290     1.7740     1.9380 n8         1 PEX      -0.867800
     36 H1          -0.5360     4.0300    -2.5870 h1         1 PEX       0.032700
     37 H2          -1.8710     3.7990    -1.4770 h1         1 PEX       0.032700
     38 H3          -1.8650     2.3070    -3.4020 h1         1 PEX       0.049700
     39 H4           0.5660     2.0200    -3.6490 h1         1 PEX       0.055200
     40 H5          -0.3660     0.5220    -3.7680 h1         1 PEX       0.055200
     41 H6           1.9890    -0.8550    -0.5320 hc         1 PEX       0.085700
     42 H7           2.6970     0.7260    -0.3050 hc         1 PEX       0.085700
     43 H8           4.6730     0.0870    -1.6610 hc         1 PEX       0.045700
     44 H9           3.9560    -1.4640    -2.0420 hc         1 PEX       0.045700
     45 H10          3.9900    -2.1000     0.3590 hc         1 PEX       0.039700
     46 H11          4.6450    -0.5330     0.7800 hc         1 PEX       0.039700
     47 H12          6.6730    -1.0140    -0.6180 hc         1 PEX       0.035700
     48 H13          6.0120    -2.5820    -1.0310 hc         1 PEX       0.035700
     49 H14          6.0340    -3.2260     1.3920 hc         1 PEX       0.034700
     50 H15          6.7040    -1.6600     1.7990 hc         1 PEX       0.034700
     51 H16          8.7120    -2.1520     0.3880 hc         1 PEX       0.035700
     52 H17          8.0410    -3.7170    -0.0200 hc         1 PEX       0.035700
     53 H18          8.0810    -4.3680     2.3960 hc         1 PEX       0.035700
     54 H19          8.7500    -2.8030     2.8080 hc         1 PEX       0.035700
     55 H20         10.7550    -3.2850     1.3950 hc         1 PEX       0.035700
     56 H21         10.0890    -4.8470     0.9790 hc         1 PEX       0.035700
     57 H22         10.8180    -3.9650     3.8250 hc         1 PEX       0.028367
     58 H23         10.1550    -5.5380     3.3900 hc         1 PEX       0.028367
     59 H24         11.7560    -5.0700     2.8260 hc         1 PEX       0.028367
     60 H25         -3.3680    -0.8010    -0.9280 hc         1 PEX       0.072700
     61 H26         -3.5020     0.4050     0.3220 hc         1 PEX       0.072700
     62 H27         -5.8070     0.9980    -0.4690 hc         1 PEX       0.050200
     63 H28         -5.6720    -0.1780    -1.7610 hc         1 PEX       0.050200
     64 H29         -5.3830    -2.0000    -0.0620 hc         1 PEX       0.036700
     65 H30         -5.5620    -0.8220     1.2210 hc         1 PEX       0.036700
     66 H31         -7.8590    -0.2700     0.3930 hc         1 PEX       0.037700
     67 H32         -7.6740    -1.4360    -0.8990 hc         1 PEX       0.037700
     68 H33         -7.3980    -3.2630     0.7930 hc         1 PEX       0.036700
     69 H34         -7.6050    -2.0970     2.0820 hc         1 PEX       0.036700
     70 H35         -9.8990    -1.5650     1.2340 hc         1 PEX       0.036200
     71 H36         -9.6900    -2.7230    -0.0620 hc         1 PEX       0.036200
     72 H37         -9.4210    -4.5590     1.6180 hc         1 PEX       0.036700
     73 H38         -9.6310    -3.4030     2.9160 hc         1 PEX       0.036700
     74 H39        -11.9240    -2.8710     2.0700 hc         1 PEX       0.035700
     75 H40        -11.7130    -4.0190     0.7680 hc         1 PEX       0.035700
     76 H41        -11.6750    -4.7370     3.7500 hc         1 PEX       0.029367
     77 H42        -13.0140    -5.0350     2.6450 hc         1 PEX       0.029367
     78 H43        -11.4870    -5.8860     2.4300 hc         1 PEX       0.029367
     79 H44          3.8660     3.9900     0.4250 h1         1 PEX       0.019700
     80 H45          2.8570     4.9240     1.5270 h1         1 PEX       0.019700
     81 H46          4.3480     3.7000     2.8330 h1         1 PEX       0.017200
     82 H47          2.7700     2.9760     3.0780 h1         1 PEX       0.017200
     83 H48          4.8220     1.8680     1.3160 hn         1 PEX       0.321800
     84 H49          4.3720     1.2730     2.7470 hn         1 PEX       0.321800
@<TRIPOS>BOND
     1     1     3 1   
     2     2     3 1   
     3     3     4 1   
     4     3    32 1   
     5     4     5 1   
     6     5     6 1   
     7     5    36 1   
     8     5    37 1   
     9     6     7 1   
    10     6    20 1   
    11     6    38 1   
    12     7     8 1   
    13     7    39 1   
    14     7    40 1   
    15     8     9 1   
    16     9    10 2   
    17     9    11 1   
    18    11    12 1   
    19    11    41 1   
    20    11    42 1   
    21    12    13 1   
    22    12    43 1   
    23    12    44 1   
    24    13    14 1   
    25    13    45 1   
    26    13    46 1   
    27    14    15 1   
    28    14    47 1   
    29    14    48 1   
    30    15    16 1   
    31    15    49 1   
    32    15    50 1   
    33    16    17 1   
    34    16    51 1   
    35    16    52 1   
    36    17    18 1   
    37    17    53 1   
    38    17    54 1   
    39    18    19 1   
    40    18    55 1   
    41    18    56 1   
    42    19    57 1   
    43    19    58 1   
    44    19    59 1   
    45    20    21 1   
    46    21    22 2   
    47    21    23 1   
    48    23    24 1   
    49    23    60 1   
    50    23    61 1   
    51    24    25 1   
    52    24    62 1   
    53    24    63 1   
    54    25    26 1   
    55    25    64 1   
    56    25    65 1   
    57    26    27 1   
    58    26    66 1   
    59    26    67 1   
    60    27    28 1   
    61    27    68 1   
    62    27    69 1   
    63    28    29 1   
    64    28    70 1   
    65    28    71 1   
    66    29    30 1   
    67    29    72 1   
    68    29    73 1   
    69    30    31 1   
    70    30    74 1   
    71    30    75 1   
    72    31    76 1   
    73    31    77 1   
    74    31    78 1   
    75    32    33 1   
    76    33    34 1   
    77    33    79 1   
    78    33    80 1   
    79    34    35 1   
    80    34    81 1   
    81    34    82 1   
    82    35    83 1   
    83    35    84 1   
@<TRIPOS>SUBSTRUCTURE
     1 PEX         1 TEMP              0 ****  ****    0 ROOT
