@<TRIPOS>MOLECULE
PEX
   84    83     1     0     0
SMALL
No Charge or Current Charge


@<TRIPOS>ATOM
      1 O1           3.1920     3.8670    -0.3530 o          1 PEX      -0.831500
      2 O2           2.6510     2.7190    -2.4540 o          1 PEX      -0.831500
      3 P1           2.2430     2.9370    -1.0350 p5         1 PEX       1.383800
      4 O3           0.7230     3.4700    -0.9260 os         1 PEX      -0.562400
      5 C1          -0.1170     3.6850    -2.0790 c3         1 PEX       0.215600
      6 C2          -0.9640     2.4370    -2.5190 c3         1 PEX       0.151300
      7 C3          -0.2250     1.3130    -3.2980 c3         1 PEX       0.173600
      8 O4           0.4600     0.4290    -2.3930 os         1 PEX      -0.411100
      9 C4           1.1500    -0.6280    -2.9210 c          1 PEX       0.626100
     10 O5           1.1580    -0.9230    -4.1100 o          1 PEX      -0.514000
     11 C5           1.7840    -1.4980    -1.8330 c3         1 PEX      -0.140400
     12 C6           3.3200    -1.3230    -1.7870 c3         1 PEX      -0.061400
     13 C7           3.9780    -2.0850    -0.6160 c3         1 PEX      -0.078400
     14 C8           5.5090    -1.8940    -0.5570 c3         1 PEX      -0.075400
     15 C9           6.1670    -2.6500     0.6190 c3         1 PEX      -0.074400
     16 C10          7.6980    -2.4590     0.6800 c3         1 PEX      -0.075400
     17 C11          8.3550    -3.2140     1.8550 c3         1 PEX      -0.075400
     18 C12          9.8860    -3.0230     1.9160 c3         1 PEX      -0.075400
     19 C13         10.5420    -3.7770     3.0890 c3         1 PEX      -0.088100
     20 O6          -1.6810     1.8520    -1.4010 os         1 PEX      -0.417100
     21 C14         -2.6700     2.5690    -0.7810 c          1 PEX       0.598100
     22 O7          -3.1110     3.6380    -1.1820 o          1 PEX      -0.516000
     23 C15         -3.3160     1.7680     0.3510 c3         1 PEX      -0.142400
     24 C16         -4.4800     0.8920    -0.1700 c3         1 PEX      -0.066400
     25 C17         -5.1530     0.0580     0.9420 c3         1 PEX      -0.076400
     26 C18         -6.3150    -0.8160     0.4220 c3         1 PEX      -0.074400
     27 C19         -6.9880    -1.6510     1.5330 c3         1 PEX      -0.074400
     28 C20         -8.1500    -2.5250     1.0130 c3         1 PEX      -0.074400
     29 C21         -8.8230    -3.3600     2.1250 c3         1 PEX      -0.075400
     30 C22         -9.9850    -4.2340     1.6050 c3         1 PEX      -0.075400
     31 C23        -10.6570    -5.0660     2.7140 c3         1 PEX      -0.088100
     32 O8           2.1150     1.5330    -0.2500 os         1 PEX      -0.570400
     33 C24          2.3880     1.4150     1.1600 c3         1 PEX       0.222600
     34 C25          1.4310     2.2830     2.0460 c3         1 PEX       0.144800
     35 N1           0.0480     1.7530     2.1740 n8         1 PEX      -0.978200
     36 H1           0.4810     4.0190    -2.9370 h1         1 PEX       0.032700
     37 H2          -0.8060     4.5110    -1.8650 h1         1 PEX       0.032700
     38 H3          -1.6960     2.8280    -3.2370 h1         1 PEX       0.049700
     39 H4           0.4760     1.7670    -4.0110 h1         1 PEX       0.055200
     40 H5          -0.9700     0.7520    -3.8780 h1         1 PEX       0.055200
     41 H6           1.5500    -2.5480    -2.0380 hc         1 PEX       0.085700
     42 H7           1.3770    -1.2010    -0.8590 hc         1 PEX       0.085700
     43 H8           3.5610    -0.2560    -1.7010 hc         1 PEX       0.045700
     44 H9           3.7510    -1.6690    -2.7350 hc         1 PEX       0.045700
     45 H10          3.7500    -3.1540    -0.7080 hc         1 PEX       0.039700
     46 H11          3.5380    -1.7420     0.3290 hc         1 PEX       0.039700
     47 H12          5.7360    -0.8240    -0.4680 hc         1 PEX       0.035700
     48 H13          5.9520    -2.2390    -1.5000 hc         1 PEX       0.035700
     49 H14          5.9410    -3.7200     0.5300 hc         1 PEX       0.034700
     50 H15          5.7230    -2.3050     1.5610 hc         1 PEX       0.034700
     51 H16          7.9240    -1.3880     0.7680 hc         1 PEX       0.035700
     52 H17          8.1410    -2.8030    -0.2630 hc         1 PEX       0.035700
     53 H18          8.1290    -4.2840     1.7670 hc         1 PEX       0.035700
     54 H19          7.9110    -2.8700     2.7980 hc         1 PEX       0.035700
     55 H20         10.1160    -1.9540     2.0070 hc         1 PEX       0.035700
     56 H21         10.3340    -3.3690     0.9760 hc         1 PEX       0.035700
     57 H22         10.1400    -3.4280     4.0480 hc         1 PEX       0.028367
     58 H23         10.3600    -4.8550     3.0080 hc         1 PEX       0.028367
     59 H24         11.6260    -3.6110     3.0910 hc         1 PEX       0.028367
     60 H25         -2.5650     1.0980     0.7850 hc         1 PEX       0.072700
     61 H26         -3.6990     2.4610     1.1090 hc         1 PEX       0.072700
     62 H27         -5.2320     1.5370    -0.6430 hc         1 PEX       0.050200
     63 H28         -4.1020     0.2170    -0.9490 hc         1 PEX       0.050200
     64 H29         -4.4010    -0.5860     1.4150 hc         1 PEX       0.036700
     65 H30         -5.5310     0.7330     1.7200 hc         1 PEX       0.036700
     66 H31         -7.0670    -0.1720    -0.0510 hc         1 PEX       0.037700
     67 H32         -5.9370    -1.4920    -0.3560 hc         1 PEX       0.037700
     68 H33         -6.2360    -2.2950     2.0060 hc         1 PEX       0.036700
     69 H34         -7.3660    -0.9750     2.3110 hc         1 PEX       0.036700
     70 H35         -8.9020    -1.8810     0.5410 hc         1 PEX       0.036200
     71 H36         -7.7720    -3.2010     0.2350 hc         1 PEX       0.036200
     72 H37         -8.0710    -4.0040     2.5980 hc         1 PEX       0.036700
     73 H38         -9.2010    -2.6840     2.9030 hc         1 PEX       0.036700
     74 H39        -10.7400    -3.5930     1.1340 hc         1 PEX       0.035700
     75 H40         -9.6100    -4.9120     0.8280 hc         1 PEX       0.035700
     76 H41        -11.0740    -4.4140     3.4910 hc         1 PEX       0.029367
     77 H42        -11.4730    -5.6690     2.2980 hc         1 PEX       0.029367
     78 H43         -9.9340    -5.7450     3.1820 hc         1 PEX       0.029367
     79 H44          2.3110     0.3650     1.4700 h1         1 PEX       0.019700
     80 H45          3.4210     1.7290     1.3600 h1         1 PEX       0.019700
     81 H46          1.8540     2.3210     3.0590 h1         1 PEX       0.017200
     82 H47          1.3810     3.3150     1.6780 h1         1 PEX       0.017200
     83 H48          0.0840     0.8140     2.5830 hn         1 PEX       0.377000
     84 H49         -0.4600     2.3090     2.8700 hn         1 PEX       0.377000
@<TRIPOS>BOND
     1     1     3 1   
     2     2     3 1   
     3     3     4 1   
     4     3    32 1   
     5     4     5 1   
     6     5     6 1   
     7     5    36 1   
     8     5    37 1   
     9     6     7 1   
    10     6    20 1   
    11     6    38 1   
    12     7     8 1   
    13     7    39 1   
    14     7    40 1   
    15     8     9 1   
    16     9    10 2   
    17     9    11 1   
    18    11    12 1   
    19    11    41 1   
    20    11    42 1   
    21    12    13 1   
    22    12    43 1   
    23    12    44 1   
    24    13    14 1   
    25    13    45 1   
    26    13    46 1   
    27    14    15 1   
    28    14    47 1   
    29    14    48 1   
    30    15    16 1   
    31    15    49 1   
    32    15    50 1   
    33    16    17 1   
    34    16    51 1   
    35    16    52 1   
    36    17    18 1   
    37    17    53 1   
    38    17    54 1   
    39    18    19 1   
    40    18    55 1   
    41    18    56 1   
    42    19    57 1   
    43    19    58 1   
    44    19    59 1   
    45    20    21 1   
    46    21    22 2   
    47    21    23 1   
    48    23    24 1   
    49    23    60 1   
    50    23    61 1   
    51    24    25 1   
    52    24    62 1   
    53    24    63 1   
    54    25    26 1   
    55    25    64 1   
    56    25    65 1   
    57    26    27 1   
    58    26    66 1   
    59    26    67 1   
    60    27    28 1   
    61    27    68 1   
    62    27    69 1   
    63    28    29 1   
    64    28    70 1   
    65    28    71 1   
    66    29    30 1   
    67    29    72 1   
    68    29    73 1   
    69    30    31 1   
    70    30    74 1   
    71    30    75 1   
    72    31    76 1   
    73    31    77 1   
    74    31    78 1   
    75    32    33 1   
    76    33    34 1   
    77    33    79 1   
    78    33    80 1   
    79    34    35 1   
    80    34    81 1   
    81    34    82 1   
    82    35    83 1   
    83    35    84 1   
@<TRIPOS>SUBSTRUCTURE
     1 PEX         1 TEMP              0 ****  ****    0 ROOT
