@<TRIPOS>MOLECULE
PEY
   24    26     1     0     0
SMALL
No Charge or Current Charge


@<TRIPOS>ATOM
      1 C1          -1.4940    -1.5720    -0.0050 ca         1 PEY      -0.099000
      2 C2          -2.8990    -1.5260     0.0010 ca         1 PEY      -0.108000
      3 C3          -3.5670    -0.2940     0.0120 ca         1 PEY      -0.107000
      4 C4          -2.8270     0.8960     0.0180 ca         1 PEY      -0.099000
      5 C5          -1.4190     0.8600     0.0130 ca         1 PEY      -0.036000
      6 C6          -0.7250    -0.3780     0.0010 ca         1 PEY      -0.018500
      7 C7           0.7040    -0.3760    -0.0040 ca         1 PEY      -0.018500
      8 C8           1.3950     0.8650     0.0030 ca         1 PEY      -0.036000
      9 C9           0.6850     2.0770     0.0140 ca         1 PEY      -0.097000
     10 C10         -0.7140     2.0740     0.0190 ca         1 PEY      -0.097000
     11 C11          1.4770    -1.5670    -0.0150 ca         1 PEY      -0.099000
     12 C12          2.8810    -1.5170    -0.0190 ca         1 PEY      -0.108000
     13 C13          3.5450    -0.2830    -0.0130 ca         1 PEY      -0.107000
     14 C14          2.8030     0.9050    -0.0020 ca         1 PEY      -0.099000
     15 H1          -1.0340    -2.5520    -0.0130 ha         1 PEY       0.112000
     16 H2          -3.4710    -2.4510    -0.0040 ha         1 PEY       0.112500
     17 H3          -4.6540    -0.2620     0.0150 ha         1 PEY       0.114000
     18 H4          -3.3520     1.8490     0.0260 ha         1 PEY       0.113000
     19 H9           1.2180     3.0250     0.0190 ha         1 PEY       0.113000
     20 H10         -1.2490     3.0210     0.0270 ha         1 PEY       0.113000
     21 H11          1.0200    -2.5490    -0.0200 ha         1 PEY       0.112000
     22 H12          3.4560    -2.4400    -0.0280 ha         1 PEY       0.112500
     23 H13          4.6330    -0.2480    -0.0160 ha         1 PEY       0.114000
     24 H14          3.3240     1.8600     0.0040 ha         1 PEY       0.113000
@<TRIPOS>BOND
     1     1     2 ar  
     2     1     6 ar  
     3     1    15 1   
     4     2     3 ar  
     5     2    16 1   
     6     3     4 ar  
     7     3    17 1   
     8     4     5 ar  
     9     4    18 1   
    10     5     6 ar  
    11     5    10 ar  
    12     6     7 ar  
    13     7     8 ar  
    14     7    11 ar  
    15     8     9 ar  
    16     8    14 ar  
    17     9    10 ar  
    18     9    19 1   
    19    10    20 1   
    20    11    12 ar  
    21    11    21 1   
    22    12    13 ar  
    23    12    22 1   
    24    13    14 ar  
    25    13    23 1   
    26    14    24 1   
@<TRIPOS>SUBSTRUCTURE
     1 PEY         1 TEMP              0 ****  ****    0 ROOT
