@<TRIPOS>MOLECULE
PF0
   18    18     1     0     0
SMALL
bcc


@<TRIPOS>ATOM
      1 C1          -2.0940    -1.1110     0.0670 ca         1 PF0      -0.252000
      2 C2          -1.0860    -2.0610     0.0050 ca         1 PF0      -0.128000
      3 C3           0.2390    -1.6620    -0.0190 ca         1 PF0      -0.139000
      4 C4           0.5780    -0.3070    -0.0130 ca         1 PF0      -0.090600
      5 C5          -0.4260     0.6650     0.0690 ca         1 PF0      -0.076300
      6 C6          -1.7620     0.2380     0.1070 ca         1 PF0       0.096100
      7 C7          -0.1430     2.1410     0.1480 c3         1 PF0      -0.019800
      8 C8           2.0570     0.0420    -0.1340 c          1 PF0       0.923200
      9 O1           2.8420    -0.6520     0.5400 o          1 PF0      -0.822800
     10 O2          -2.7170     1.1950     0.1740 oh         1 PF0      -0.512100
     11 O3           2.3570     0.9600    -0.9200 o          1 PF0      -0.822800
     12 H36         -3.1350    -1.4160     0.0900 ha         1 PF0       0.099000
     13 H37         -1.3410    -3.1130    -0.0210 ha         1 PF0       0.102000
     14 H38          1.0230    -2.4060    -0.0580 ha         1 PF0       0.140000
     15 H32         -0.2670     2.6280    -0.8220 hc         1 PF0       0.036033
     16 H33         -0.8260     2.6340     0.8400 hc         1 PF0       0.036033
     17 H34          0.8690     2.3430     0.4810 hc         1 PF0       0.036033
     18 H23         -3.5890     0.7880     0.2130 ho         1 PF0       0.398000
@<TRIPOS>BOND
     1     1     2 ar  
     2     1     6 ar  
     3     1    12 1   
     4     2     3 ar  
     5     2    13 1   
     6     3     4 ar  
     7     3    14 1   
     8     4     5 ar  
     9     4     8 1   
    10     5     6 ar  
    11     5     7 1   
    12     6    10 1   
    13     7    15 1   
    14     7    16 1   
    15     7    17 1   
    16     8     9 1   
    17     8    11 1   
    18    10    18 1   
@<TRIPOS>SUBSTRUCTURE
     1 PF0         1 TEMP              0 ****  ****    0 ROOT
