@<TRIPOS>MOLECULE
PF0
   18    18     1     0     0
SMALL
No Charge or Current Charge


@<TRIPOS>ATOM
      1 C1          -2.1190    -1.1090     0.0910 ca         1 PF0      -0.234000
      2 C2          -1.1070    -2.0720    -0.0140 ca         1 PF0      -0.110000
      3 C3           0.2340    -1.6700    -0.0820 ca         1 PF0      -0.121000
      4 C4           0.5830    -0.3020    -0.0450 ca         1 PF0      -0.090600
      5 C5          -0.4410     0.6770     0.0810 ca         1 PF0      -0.076300
      6 C6          -1.7930     0.2550     0.1380 ca         1 PF0       0.096100
      7 C7          -0.0900     2.1670     0.1600 c3         1 PF0      -0.019800
      8 C8           2.0470     0.0730    -0.1440 c          1 PF0       0.712600
      9 O1           2.8210    -0.4150     0.6680 o          1 PF0      -0.717500
     10 O2          -2.8120     1.1560     0.2370 oh         1 PF0      -0.551100
     11 O3           2.4060     0.7890    -1.0700 o          1 PF0      -0.717500
     12 H36         -3.1570    -1.4280     0.1370 ha         1 PF0       0.081000
     13 H37         -1.3610    -3.1290    -0.0480 ha         1 PF0       0.084000
     14 H38          1.0140    -2.4240    -0.1720 ha         1 PF0       0.122000
     15 H32          0.0210     2.5960    -0.8420 hc         1 PF0       0.036033
     16 H33         -0.8550     2.7490     0.6870 hc         1 PF0       0.036033
     17 H34          0.8470     2.3340     0.7040 hc         1 PF0       0.036033
     18 H23         -3.6570     0.6590     0.2600 ho         1 PF0       0.437000
@<TRIPOS>BOND
     1     1     2 ar  
     2     1     6 ar  
     3     1    12 1   
     4     2     3 ar  
     5     2    13 1   
     6     3     4 ar  
     7     3    14 1   
     8     4     5 ar  
     9     4     8 1   
    10     5     6 ar  
    11     5     7 1   
    12     6    10 1   
    13     7    15 1   
    14     7    16 1   
    15     7    17 1   
    16     8     9 1   
    17     8    11 1   
    18    10    18 1   
@<TRIPOS>SUBSTRUCTURE
     1 PF0         1 TEMP              0 ****  ****    0 ROOT
