@<TRIPOS>MOLECULE
PF1
   29    29     1     0     0
SMALL
bcc


@<TRIPOS>ATOM
      1 OAD         -1.2480     1.9500    -1.6860 oh         1 PF1      -0.594800
      2 CAG         -2.3650     2.0270    -0.8330 c3         1 PF1       0.119400
      3 CAH         -2.9770     0.6510    -0.6820 c3         1 PF1       0.106000
      4 NAO         -2.1480    -0.3050     0.0300 n          1 PF1      -0.488800
      5 CAE         -2.4850    -0.7110     1.2670 c          1 PF1       0.660900
      6 OAC         -1.8710    -1.5340     1.9210 o          1 PF1      -0.587100
      7 CAI         -1.0200    -0.9250    -0.6300 c3         1 PF1       0.172300
      8 C5           0.3270    -0.4330    -0.1790 ca         1 PF1      -0.382900
      9 C6           0.5260     0.6000     0.7010 ca         1 PF1       0.480200
     10 N1           1.7290     1.0430     1.0790 nb         1 PF1      -0.747000
     11 C2           2.7720     0.4200     0.5520 ca         1 PF1       0.701300
     12 CAA          4.1380     0.8650     0.9730 c3         1 PF1      -0.133400
     13 N3           2.7100    -0.5920    -0.3040 nb         1 PF1      -0.795000
     14 C4           1.5080    -1.0270    -0.6770 ca         1 PF1       0.712200
     15 NAB          1.4710    -2.0300    -1.5790 nv         1 PF1      -0.959500
     16 HOAD        -0.7590     2.7760    -1.6270 ho         1 PF1       0.413000
     17 HAG1        -2.0980     2.4120     0.1590 h1         1 PF1       0.027700
     18 HAG2        -3.1400     2.6930    -1.2360 h1         1 PF1       0.027700
     19 HAH1        -3.9170     0.7580    -0.1390 h1         1 PF1       0.055200
     20 HAH2        -3.2280     0.2430    -1.6650 h1         1 PF1       0.055200
     21 HAE         -3.3930    -0.2150     1.6430 h5         1 PF1       0.006200
     22 HAI1        -1.0820    -2.0080    -0.4780 h1         1 PF1       0.055700
     23 HAI2        -1.1280    -0.7580    -1.7040 h1         1 PF1       0.055700
     24 H6          -0.3230     1.1140     1.1380 h4         1 PF1       0.014100
     25 HAA1         4.5330     0.1960     1.7400 hc         1 PF1       0.056700
     26 HAA2         4.8330     0.8410     0.1350 hc         1 PF1       0.056700
     27 HAA3         4.1120     1.8700     1.3890 hc         1 PF1       0.056700
     28 HAB1         0.6280    -2.5590    -1.7230 hn         1 PF1       0.429800
     29 HAB2         2.3290    -2.5220    -1.7660 hn         1 PF1       0.429800
@<TRIPOS>BOND
     1     1     2 1   
     2     1    16 1   
     3     2     3 1   
     4     2    17 1   
     5     2    18 1   
     6     3     4 1   
     7     3    19 1   
     8     3    20 1   
     9     4     5 1   
    10     4     7 1   
    11     5     6 2   
    12     5    21 1   
    13     7     8 1   
    14     7    22 1   
    15     7    23 1   
    16     8     9 ar  
    17     8    14 ar  
    18     9    10 ar  
    19     9    24 1   
    20    10    11 ar  
    21    11    12 1   
    22    11    13 ar  
    23    12    25 1   
    24    12    26 1   
    25    12    27 1   
    26    13    14 ar  
    27    14    15 1   
    28    15    28 1   
    29    15    29 1   
@<TRIPOS>SUBSTRUCTURE
     1 PF1         1 TEMP              0 ****  ****    0 ROOT
