@<TRIPOS>MOLECULE
PF1
   29    29     1     0     0
SMALL
No Charge or Current Charge


@<TRIPOS>ATOM
      1 OAD         -1.3860     2.2280    -1.6460 oh         1 PF1      -0.657000
      2 CAG         -2.5300     2.0940    -0.7880 c3         1 PF1       0.142600
      3 CAH         -3.0250     0.6270    -0.7340 c3         1 PF1       0.106000
      4 NAO         -2.1430    -0.3020     0.0170 n          1 PF1      -0.421800
      5 CAE         -2.4800    -0.6840     1.3270 c          1 PF1       0.593900
      6 OAC         -1.8370    -1.5050     1.9710 o          1 PF1      -0.587100
      7 CAI         -0.9960    -0.9190    -0.6870 c3         1 PF1       0.172300
      8 C5           0.3890    -0.4620    -0.2280 ca         1 PF1      -0.252300
      9 C6           0.5670     0.6290     0.6480 ca         1 PF1       0.151900
     10 N1           1.7900     1.0350     1.0420 nb         1 PF1      -0.221000
     11 C2           2.8430     0.3490     0.5530 ca         1 PF1       0.175300
     12 CAA          4.2240     0.7970     0.9990 c3         1 PF1      -0.133400
     13 N3           2.7850    -0.7030    -0.2880 nb         1 PF1      -0.269000
     14 C4           1.5630    -1.0970    -0.6710 ca         1 PF1       0.383900
     15 NAB          1.5560    -2.1570    -1.5250 nv         1 PF1      -1.069900
     16 HOAD        -1.1260     3.1760    -1.6350 ho         1 PF1       0.452000
     17 HAG1        -2.2930     2.4330     0.2290 h1         1 PF1       0.027700
     18 HAG2        -3.3490     2.7220    -1.1640 h1         1 PF1       0.027700
     19 HAH1        -4.0200     0.6190    -0.2720 h1         1 PF1       0.055200
     20 HAH2        -3.1530     0.2540    -1.7590 h1         1 PF1       0.055200
     21 HAE         -3.3810    -0.1700     1.7120 h5         1 PF1       0.006200
     22 HAI1        -1.0720    -2.0080    -0.5640 h1         1 PF1       0.055700
     23 HAI2        -1.0870    -0.7140    -1.7620 h1         1 PF1       0.055700
     24 H6          -0.2730     1.1950     1.0460 h4         1 PF1       0.014100
     25 HAA1         4.5360     0.2540     1.8990 hc         1 PF1       0.056700
     26 HAA2         4.9750     0.6160     0.2210 hc         1 PF1       0.056700
     27 HAA3         4.2440     1.8690     1.2310 hc         1 PF1       0.056700
     28 HAB1         0.6920    -2.6660    -1.6850 hn         1 PF1       0.485000
     29 HAB2         2.4240    -2.6690    -1.6700 hn         1 PF1       0.485000
@<TRIPOS>BOND
     1     1     2 1   
     2     1    16 1   
     3     2     3 1   
     4     2    17 1   
     5     2    18 1   
     6     3     4 1   
     7     3    19 1   
     8     3    20 1   
     9     4     5 1   
    10     4     7 1   
    11     5     6 2   
    12     5    21 1   
    13     7     8 1   
    14     7    22 1   
    15     7    23 1   
    16     8     9 ar  
    17     8    14 ar  
    18     9    10 ar  
    19     9    24 1   
    20    10    11 ar  
    21    11    12 1   
    22    11    13 ar  
    23    12    25 1   
    24    12    26 1   
    25    12    27 1   
    26    13    14 ar  
    27    14    15 1   
    28    15    28 1   
    29    15    29 1   
@<TRIPOS>SUBSTRUCTURE
     1 PF1         1 TEMP              0 ****  ****    0 ROOT
