@<TRIPOS>MOLECULE
PF2
   50    53     1     0     0
SMALL
abcg2


@<TRIPOS>ATOM
      1 F26         -5.9800    -2.4440    -1.0320 f          1 PF2      -0.109500
      2 C11         -5.1920    -1.7850    -0.1470 c5         1 PF2       0.170000
      3 F25         -4.2730    -2.6990     0.2880 f          1 PF2      -0.109500
      4 C10         -5.9350    -1.1960     1.0260 c5         1 PF2      -0.149400
      5 C9          -4.9540    -0.1530     1.5510 c5         1 PF2       0.106000
      6 C12         -4.4730    -0.6060    -0.7820 c5         1 PF2       0.056000
      7 N8          -4.1810     0.2230     0.3680 n          1 PF2      -0.437800
      8 C6          -3.3040     1.2540     0.4180 c          1 PF2       0.623100
      9 O7          -3.1300     1.8910     1.4350 o          1 PF2      -0.559100
     10 C4          -2.5090     1.5180    -0.8570 c5         1 PF2       0.082500
     11 N3          -1.9640     2.8640    -0.8440 n7         1 PF2      -0.817400
     12 C2          -0.6040     2.7460    -0.3560 c5         1 PF2       0.141800
     13 C5          -1.3030     0.5320    -0.9220 c5         1 PF2      -0.107400
     14 C1          -0.0630     1.4370    -0.9520 c5         1 PF2       0.147500
     15 N13          1.0610     0.8790    -0.2300 n3         1 PF2      -0.710600
     16 C18          2.1730     1.8040    -0.1320 c6         1 PF2       0.152300
     17 C17          3.2870     1.2330     0.7260 c6         1 PF2       0.223300
     18 N16          3.7040    -0.0580     0.2270 nh         1 PF2      -0.771300
     19 C15          2.6170    -0.9940     0.0460 c6         1 PF2       0.223300
     20 C14          1.5190    -0.3730    -0.7990 c6         1 PF2       0.152300
     21 C19          4.9990    -0.4580     0.2650 ca         1 PF2       0.388900
     22 N23          5.2640    -1.7340    -0.0380 nb         1 PF2      -0.248500
     23 C24          6.5300    -2.1000    -0.0180 ca         1 PF2       0.153900
     24 C22          7.5650    -1.2350     0.2990 ca         1 PF2      -0.290000
     25 C21          7.1760     0.0610     0.6020 ca         1 PF2       0.153900
     26 N20          5.9200     0.4580     0.5910 nb         1 PF2      -0.248500
     27 H10         -6.8480    -0.7200     0.6650 hc         1 PF2       0.081200
     28 H10A        -6.2060    -1.9400     1.7730 hc         1 PF2       0.081200
     29 H9          -5.4640     0.7080     1.9780 h1         1 PF2       0.066700
     30 H9A         -4.3020    -0.5710     2.3210 h1         1 PF2       0.066700
     31 H12         -3.5790    -0.9340    -1.3150 h1         1 PF2       0.067700
     32 H12A        -5.1430    -0.1140    -1.4940 h1         1 PF2       0.067700
     33 H4          -3.1610     1.4060    -1.7260 h1         1 PF2       0.060700
     34 HN3         -1.9520     3.2230    -1.7880 hn         1 PF2       0.407000
     35 H2          -0.0280     3.6280    -0.6400 h1         1 PF2       0.072700
     36 H2A         -0.6060     2.6800     0.7340 h1         1 PF2       0.072700
     37 H5          -1.2630    -0.1070    -0.0360 hc         1 PF2       0.062700
     38 H5A         -1.3620    -0.1220    -1.7920 hc         1 PF2       0.062700
     39 H1           0.2080     1.6310    -2.0080 h1         1 PF2       0.018700
     40 H18          2.5760     2.0680    -1.1260 h1         1 PF2       0.040950
     41 H18A         1.8410     2.7310     0.3370 h1         1 PF2       0.040950
     42 H17          4.1360     1.9110     0.7290 h1         1 PF2       0.065700
     43 H17A         2.9310     1.1370     1.7590 h1         1 PF2       0.065700
     44 H15          2.9870    -1.8950    -0.4340 h1         1 PF2       0.065700
     45 H15A         2.2030    -1.2800     1.0220 h1         1 PF2       0.065700
     46 H14          0.6920    -1.0830    -0.8400 h1         1 PF2       0.040950
     47 H14A         1.8870    -0.2430    -1.8320 h1         1 PF2       0.040950
     48 H24          6.7300    -3.1380    -0.2650 h4         1 PF2       0.018600
     49 H22          8.5980    -1.5470     0.3160 ha         1 PF2       0.135000
     50 H21          7.9120     0.8140     0.8670 h4         1 PF2       0.018600
@<TRIPOS>BOND
     1     1     2 1   
     2     2     3 1   
     3     2     4 1   
     4     2     6 1   
     5     4     5 1   
     6     4    27 1   
     7     4    28 1   
     8     5     7 1   
     9     5    29 1   
    10     5    30 1   
    11     6     7 1   
    12     6    31 1   
    13     6    32 1   
    14     7     8 1   
    15     8     9 2   
    16     8    10 1   
    17    10    11 1   
    18    10    13 1   
    19    10    33 1   
    20    11    12 1   
    21    11    34 1   
    22    12    14 1   
    23    12    35 1   
    24    12    36 1   
    25    13    14 1   
    26    13    37 1   
    27    13    38 1   
    28    14    15 1   
    29    14    39 1   
    30    15    16 1   
    31    15    20 1   
    32    16    17 1   
    33    16    40 1   
    34    16    41 1   
    35    17    18 1   
    36    17    42 1   
    37    17    43 1   
    38    18    19 1   
    39    18    21 1   
    40    19    20 1   
    41    19    44 1   
    42    19    45 1   
    43    20    46 1   
    44    20    47 1   
    45    21    22 ar  
    46    21    26 ar  
    47    22    23 ar  
    48    23    24 ar  
    49    23    48 1   
    50    24    25 ar  
    51    24    49 1   
    52    25    26 ar  
    53    25    50 1   
@<TRIPOS>SUBSTRUCTURE
     1 PF2         1 TEMP              0 ****  ****    0 ROOT
