@<TRIPOS>MOLECULE
PF2
   50    53     1     0     0
SMALL
No Charge or Current Charge


@<TRIPOS>ATOM
      1 F26         -6.0570    -2.4710    -1.1210 f          1 PF2      -0.109500
      2 C11         -5.2670    -1.9150    -0.1180 c5         1 PF2       0.170000
      3 F25         -4.4860    -2.9310     0.4320 f          1 PF2      -0.109500
      4 C10         -6.1280    -1.2190     0.9610 c5         1 PF2      -0.149400
      5 C9          -5.0910    -0.3100     1.6670 c5         1 PF2       0.106000
      6 C12         -4.3860    -0.7530    -0.6560 c5         1 PF2       0.056000
      7 N8          -4.2650     0.1430     0.5280 n          1 PF2      -0.437800
      8 C6          -3.3710     1.2400     0.6490 c          1 PF2       0.623100
      9 O7          -3.2690     1.8530     1.7080 o          1 PF2      -0.559100
     10 C4          -2.6110     1.5900    -0.7040 c5         1 PF2       0.082500
     11 N3          -2.0570     2.9910    -0.7820 n7         1 PF2      -0.817400
     12 C2          -0.6640     2.8500    -0.2920 c5         1 PF2       0.141800
     13 C5          -1.3670     0.6370    -0.8500 c5         1 PF2      -0.107400
     14 C1          -0.1680     1.6060    -1.0830 c5         1 PF2       0.147500
     15 N13          1.0540     1.0280    -0.4300 n3         1 PF2      -0.710600
     16 C18          2.2310     1.9540    -0.3810 c6         1 PF2       0.152300
     17 C17          3.4510     1.3770     0.4060 c6         1 PF2       0.223300
     18 N16          3.8720     0.0090    -0.0610 nh         1 PF2      -0.771300
     19 C15          2.7070    -0.9230    -0.2540 c6         1 PF2       0.223300
     20 C14          1.5120    -0.2710    -1.0220 c6         1 PF2       0.152300
     21 C19          5.1810    -0.4890     0.1940 ca         1 PF2       0.388900
     22 N23          5.3960    -1.8070    -0.0180 nb         1 PF2      -0.248500
     23 C24          6.6360    -2.2740     0.2170 ca         1 PF2       0.153900
     24 C22          7.6620    -1.4290     0.6630 ca         1 PF2      -0.290000
     25 C21          7.3490    -0.0750     0.8530 ca         1 PF2       0.153900
     26 N20          6.1100     0.3970     0.6190 nb         1 PF2      -0.248500
     27 H10         -6.9240    -0.6210     0.5030 hc         1 PF2       0.081200
     28 H10A        -6.6030    -1.9280     1.6490 hc         1 PF2       0.081200
     29 H9          -5.5720     0.5240     2.1960 h1         1 PF2       0.066700
     30 H9A         -4.4820    -0.8720     2.3890 h1         1 PF2       0.066700
     31 H12         -3.4150    -1.1320    -0.9980 h1         1 PF2       0.067700
     32 H12A        -4.8770    -0.2380    -1.4930 h1         1 PF2       0.067700
     33 H4          -3.3210     1.4470    -1.5300 h1         1 PF2       0.060700
     34 HN3         -2.0130     3.2700    -1.7710 hn         1 PF2       0.407000
     35 H2          -0.0650     3.7460    -0.5040 h1         1 PF2       0.072700
     36 H2A         -0.6400     2.6700     0.7930 h1         1 PF2       0.072700
     37 H5          -1.2290     0.0340     0.0560 hc         1 PF2       0.062700
     38 H5A         -1.4800    -0.0620    -1.6850 hc         1 PF2       0.062700
     39 H1          -0.0160     1.8310    -2.1480 h1         1 PF2       0.018700
     40 H18          2.5590     2.1920    -1.4030 h1         1 PF2       0.040950
     41 H18A         1.9580     2.9080     0.0920 h1         1 PF2       0.040950
     42 H17          4.2710     2.1020     0.3030 h1         1 PF2       0.065700
     43 H17A         3.1890     1.3370     1.4740 h1         1 PF2       0.065700
     44 H15          3.0020    -1.8170    -0.8220 h1         1 PF2       0.065700
     45 H15A         2.3440    -1.2680     0.7250 h1         1 PF2       0.065700
     46 H14          0.6940    -1.0040    -1.0410 h1         1 PF2       0.040950
     47 H14A         1.8170    -0.1150    -2.0670 h1         1 PF2       0.040950
     48 H24          6.8060    -3.3360     0.0470 h4         1 PF2       0.018600
     49 H22          8.6630    -1.8080     0.8520 ha         1 PF2       0.135000
     50 H21          8.0950     0.6400     1.1960 h4         1 PF2       0.018600
@<TRIPOS>BOND
     1     1     2 1   
     2     2     3 1   
     3     2     4 1   
     4     2     6 1   
     5     4     5 1   
     6     4    27 1   
     7     4    28 1   
     8     5     7 1   
     9     5    29 1   
    10     5    30 1   
    11     6     7 1   
    12     6    31 1   
    13     6    32 1   
    14     7     8 1   
    15     8     9 2   
    16     8    10 1   
    17    10    11 1   
    18    10    13 1   
    19    10    33 1   
    20    11    12 1   
    21    11    34 1   
    22    12    14 1   
    23    12    35 1   
    24    12    36 1   
    25    13    14 1   
    26    13    37 1   
    27    13    38 1   
    28    14    15 1   
    29    14    39 1   
    30    15    16 1   
    31    15    20 1   
    32    16    17 1   
    33    16    40 1   
    34    16    41 1   
    35    17    18 1   
    36    17    42 1   
    37    17    43 1   
    38    18    19 1   
    39    18    21 1   
    40    19    20 1   
    41    19    44 1   
    42    19    45 1   
    43    20    46 1   
    44    20    47 1   
    45    21    22 ar  
    46    21    26 ar  
    47    22    23 ar  
    48    23    24 ar  
    49    23    48 1   
    50    24    25 ar  
    51    24    49 1   
    52    25    26 ar  
    53    25    50 1   
@<TRIPOS>SUBSTRUCTURE
     1 PF2         1 TEMP              0 ****  ****    0 ROOT
