@<TRIPOS>MOLECULE
PF3
   50    53     1     0     0
SMALL
No Charge or Current Charge


@<TRIPOS>ATOM
      1 S1           1.7420    -0.6680    -0.8810 ss         1 PF3       0.242000
      2 C1           0.0710    -0.1420    -0.8270 cc         1 PF3      -0.268600
      3 C2          -0.3550     0.0350     0.4670 cd         1 PF3      -0.073000
      4 C3           0.6390    -0.2440     1.4580 cd         1 PF3      -0.079000
      5 C4           1.8280    -0.6360     0.8760 cc         1 PF3      -0.244000
      6 C5           0.4340    -0.1310     2.9260 ca         1 PF3       0.016000
      7 C6           1.4800    -0.4240     3.8290 ca         1 PF3      -0.105000
      8 C7           1.2910    -0.3190     5.2180 ca         1 PF3      -0.092500
      9 C8           0.0490     0.0860     5.7620 cp         1 PF3      -0.060000
     10 C9          -0.9950     0.3790     4.8540 ca         1 PF3      -0.092500
     11 C10         -0.8080     0.2730     3.4640 ca         1 PF3      -0.105000
     12 C11         -0.1520     0.1990     7.2430 cp         1 PF3       0.020000
     13 C12         -1.0250     1.1580     7.8090 ca         1 PF3      -0.159000
     14 C13         -1.1840     1.2310     9.2030 ca         1 PF3       0.330400
     15 N1          -0.5350     0.4140    10.0620 nb         1 PF3      -0.671000
     16 C14          0.3020    -0.5090     9.5370 ca         1 PF3       0.330400
     17 C15          0.5190    -0.6480     8.1570 ca         1 PF3      -0.159000
     18 C16         -0.7720     0.0830    -2.0160 c          1 PF3       0.634700
     19 O1          -1.9370     0.4520    -1.9610 o          1 PF3      -0.599100
     20 N2          -0.1290    -0.1540    -3.2080 ns         1 PF3      -0.491900
     21 C17         -0.7390    -0.0260    -4.5320 c3         1 PF3       0.163000
     22 C18         -1.4910    -1.3230    -4.9100 c3         1 PF3      -0.225400
     23 C19         -2.3120    -1.0860    -6.1830 c          1 PF3       0.723000
     24 O2          -3.4200    -0.5860    -6.0640 o          1 PF3      -0.729000
     25 O3          -1.8140    -1.3810    -7.2580 o          1 PF3      -0.729000
     26 C20          0.3270     0.3830    -5.5510 ca         1 PF3      -0.044300
     27 C21          0.2330     1.6290    -6.2050 ca         1 PF3      -0.084500
     28 C22          1.2150     2.0230    -7.1310 ca         1 PF3      -0.124500
     29 C23          2.3010     1.1770    -7.4090 ca         1 PF3      -0.124000
     30 C24          2.4050    -0.0640    -6.7590 ca         1 PF3      -0.124500
     31 C25          1.4240    -0.4590    -5.8330 ca         1 PF3      -0.084500
     32 H2          -1.3650     0.3590     0.6950 ha         1 PF3       0.154000
     33 H4           2.7650    -0.9140     1.3380 h4         1 PF3       0.145000
     34 H6           2.4550    -0.7350     3.4680 ha         1 PF3       0.119500
     35 H7           2.1260    -0.5410     5.8760 ha         1 PF3       0.112000
     36 H9          -1.9710     0.6800     5.2260 ha         1 PF3       0.112000
     37 H10         -1.6470     0.5070     2.8190 ha         1 PF3       0.119500
     38 H12         -1.5680     1.8560     7.1810 ha         1 PF3       0.124500
     39 H13         -1.8510     1.9700     9.6460 h4         1 PF3       0.014600
     40 H14          0.8110    -1.1600    10.2470 h4         1 PF3       0.014600
     41 H15          1.1960    -1.4200     7.8070 ha         1 PF3       0.124500
     42 HA           0.8380    -0.4420    -3.1560 hn         1 PF3       0.296500
     43 H17         -1.4830     0.7830    -4.4770 h1         1 PF3       0.105700
     44 H181        -2.1690    -1.5220    -4.0710 hc         1 PF3       0.026200
     45 H182        -0.7420    -2.1100    -5.0610 hc         1 PF3       0.026200
     46 H21         -0.6010     2.2950    -5.9970 ha         1 PF3       0.115000
     47 H22          1.1340     2.9850    -7.6320 ha         1 PF3       0.096000
     48 H23          3.0610     1.4820    -8.1250 ha         1 PF3       0.092000
     49 H24          3.2470    -0.7190    -6.9710 ha         1 PF3       0.096000
     50 H25          1.5200    -1.4210    -5.3350 ha         1 PF3       0.115000
@<TRIPOS>BOND
     1     1     2 1   
     2     1     5 1   
     3     2     3 2   
     4     2    18 1   
     5     3     4 1   
     6     3    32 1   
     7     4     5 2   
     8     4     6 1   
     9     5    33 1   
    10     6     7 ar  
    11     6    11 ar  
    12     7     8 ar  
    13     7    34 1   
    14     8     9 ar  
    15     8    35 1   
    16     9    10 ar  
    17     9    12 1   
    18    10    11 ar  
    19    10    36 1   
    20    11    37 1   
    21    12    13 ar  
    22    12    17 ar  
    23    13    14 ar  
    24    13    38 1   
    25    14    15 ar  
    26    14    39 1   
    27    15    16 ar  
    28    16    17 ar  
    29    16    40 1   
    30    17    41 1   
    31    18    19 2   
    32    18    20 1   
    33    20    21 1   
    34    20    42 1   
    35    21    22 1   
    36    21    26 1   
    37    21    43 1   
    38    22    23 1   
    39    22    44 1   
    40    22    45 1   
    41    23    24 1   
    42    23    25 1   
    43    26    27 ar  
    44    26    31 ar  
    45    27    28 ar  
    46    27    46 1   
    47    28    29 ar  
    48    28    47 1   
    49    29    30 ar  
    50    29    48 1   
    51    30    31 ar  
    52    30    49 1   
    53    31    50 1   
@<TRIPOS>SUBSTRUCTURE
     1 PF3         1 TEMP              0 ****  ****    0 ROOT
