@<TRIPOS>MOLECULE
PF3
   50    53     1     0     0
SMALL
bcc


@<TRIPOS>ATOM
      1 S1           1.7850    -0.7860    -0.8050 ss         1 PF3      -0.047800
      2 C1           0.2310    -0.0400    -0.8000 cc         1 PF3      -0.123700
      3 C2          -0.1970     0.1840     0.4740 cd         1 PF3      -0.091000
      4 C3           0.7230    -0.2580     1.4660 cd         1 PF3      -0.079000
      5 C4           1.8430    -0.8060     0.8960 cc         1 PF3      -0.117100
      6 C5           0.4990    -0.1410     2.9120 ca         1 PF3       0.016000
      7 C6           1.5670    -0.0950     3.8100 ca         1 PF3      -0.123000
      8 C7           1.3480     0.0050     5.1720 ca         1 PF3      -0.110500
      9 C8           0.0530     0.0750     5.6880 cp         1 PF3      -0.060000
     10 C9          -1.0150     0.0350     4.7920 ca         1 PF3      -0.110500
     11 C10         -0.7950    -0.0750     3.4300 ca         1 PF3      -0.123000
     12 C11         -0.1790     0.1910     7.1390 cp         1 PF3       0.020000
     13 C12         -1.2660     0.9000     7.6490 ca         1 PF3      -0.242300
     14 C13         -1.4400     0.9810     9.0210 ca         1 PF3       0.395700
     15 N1          -0.6220     0.4170     9.9030 nb         1 PF3      -0.671000
     16 C14          0.4140    -0.2580     9.4190 ca         1 PF3       0.395700
     17 C15          0.6770    -0.4000     8.0660 ca         1 PF3      -0.242300
     18 C16         -0.5280     0.3250    -2.0200 c          1 PF3       0.701700
     19 O1          -1.4650     1.1080    -1.9420 o          1 PF3      -0.599100
     20 N2          -0.1200    -0.2490    -3.1640 ns         1 PF3      -0.558900
     21 C17         -0.7620    -0.0370    -4.4560 c3         1 PF3       0.163000
     22 C18         -1.5580    -1.2680    -4.8750 c3         1 PF3      -0.225400
     23 C19         -2.3240    -1.0750    -6.1970 c          1 PF3       0.933600
     24 O2          -2.7060     0.0830    -6.4560 o          1 PF3      -0.834300
     25 O3          -2.5280    -2.0980    -6.8790 o          1 PF3      -0.834300
     26 C20          0.2840     0.3730    -5.4680 ca         1 PF3      -0.044300
     27 C21          0.3800     1.7000    -5.8760 ca         1 PF3      -0.102500
     28 C22          1.3600     2.1010    -6.7740 ca         1 PF3      -0.142500
     29 C23          2.2620     1.1740    -7.2790 ca         1 PF3      -0.142000
     30 C24          2.1750    -0.1530    -6.8800 ca         1 PF3      -0.142500
     31 C25          1.1920    -0.5490    -5.9820 ca         1 PF3      -0.102500
     32 H2          -1.1410     0.6620     0.6960 ha         1 PF3       0.172000
     33 H4           2.7000    -1.2320     1.3950 h4         1 PF3       0.163000
     34 H6           2.5860    -0.1170     3.4450 ha         1 PF3       0.137500
     35 H7           2.2010     0.0600     5.8360 ha         1 PF3       0.130000
     36 H9          -2.0340     0.0660     5.1570 ha         1 PF3       0.130000
     37 H10         -1.6490    -0.1290     2.7660 ha         1 PF3       0.137500
     38 H12         -1.9650     1.4050     6.9950 ha         1 PF3       0.142500
     39 H13         -2.2810     1.5350     9.4230 h4         1 PF3       0.014600
     40 H14          1.0760    -0.7170    10.1460 h4         1 PF3       0.014600
     41 H15          1.5330    -0.9820     7.7510 ha         1 PF3       0.142500
     42 HA           0.5610    -0.9920    -3.1230 hn         1 PF3       0.296500
     43 H17         -1.4560     0.7910    -4.3280 h1         1 PF3       0.105700
     44 H181        -2.2890    -1.4810    -4.0870 hc         1 PF3       0.026200
     45 H182        -0.9130    -2.1490    -4.9330 hc         1 PF3       0.026200
     46 H21         -0.3230     2.4280    -5.4880 ha         1 PF3       0.133000
     47 H22          1.4160     3.1370    -7.0830 ha         1 PF3       0.114000
     48 H23          3.0270     1.4820    -7.9810 ha         1 PF3       0.110000
     49 H24          2.8720    -0.8840    -7.2700 ha         1 PF3       0.114000
     50 H25          1.1380    -1.5910    -5.6890 ha         1 PF3       0.133000
@<TRIPOS>BOND
     1     1     2 1   
     2     1     5 1   
     3     2     3 2   
     4     2    18 1   
     5     3     4 1   
     6     3    32 1   
     7     4     5 2   
     8     4     6 1   
     9     5    33 1   
    10     6     7 ar  
    11     6    11 ar  
    12     7     8 ar  
    13     7    34 1   
    14     8     9 ar  
    15     8    35 1   
    16     9    10 ar  
    17     9    12 1   
    18    10    11 ar  
    19    10    36 1   
    20    11    37 1   
    21    12    13 ar  
    22    12    17 ar  
    23    13    14 ar  
    24    13    38 1   
    25    14    15 ar  
    26    14    39 1   
    27    15    16 ar  
    28    16    17 ar  
    29    16    40 1   
    30    17    41 1   
    31    18    19 2   
    32    18    20 1   
    33    20    21 1   
    34    20    42 1   
    35    21    22 1   
    36    21    26 1   
    37    21    43 1   
    38    22    23 1   
    39    22    44 1   
    40    22    45 1   
    41    23    24 1   
    42    23    25 1   
    43    26    27 ar  
    44    26    31 ar  
    45    27    28 ar  
    46    27    46 1   
    47    28    29 ar  
    48    28    47 1   
    49    29    30 ar  
    50    29    48 1   
    51    30    31 ar  
    52    30    49 1   
    53    31    50 1   
@<TRIPOS>SUBSTRUCTURE
     1 PF3         1 TEMP              0 ****  ****    0 ROOT
