@<TRIPOS>MOLECULE
PF4
   44    47     1     0     0
SMALL
No Charge or Current Charge


@<TRIPOS>ATOM
      1 C7          -0.7370     2.9660     0.3640 ca         1 PF4      -0.054500
      2 C9           2.4750     0.2590     0.0180 cc         1 PF4       0.489000
      3 C13         -3.1810     2.0110    -0.6070 ca         1 PF4      -0.178000
      4 C20         -2.6950    -3.5360     0.2550 ca         1 PF4       0.148100
      5 C8          -2.0760     1.1480    -0.5180 ca         1 PF4      -0.054500
      6 C18          4.6260     1.4740     0.0540 cd         1 PF4      -0.087000
      7 C16         -2.6410    -2.4690     1.1660 ca         1 PF4      -0.173500
      8 C26         -3.8770    -5.5650    -0.5040 c3         1 PF4       0.147900
      9 O24         -3.7320    -4.4380     0.3790 os         1 PF4      -0.338100
     10 C15         -1.6980    -3.6520    -0.7380 ca         1 PF4      -0.173500
     11 C10         -0.6660    -2.6990    -0.8140 ca         1 PF4      -0.059000
     12 C11         -1.6090    -1.5190     1.0900 ca         1 PF4      -0.059000
     13 C5          -0.6230    -1.6190     0.0880 ca         1 PF4      -0.060000
     14 C2           0.4670    -0.6500     0.0160 cc         1 PF4      -0.127000
     15 N6           1.8080    -0.9360    -0.0380 na         1 PF4      -0.289500
     16 C14          3.9080     0.3040     0.0040 cc         1 PF4      -0.252500
     17 S19          4.9610    -1.1030    -0.0780 ss         1 PF4       0.174000
     18 C23          6.3850    -0.0660    -0.0420 cc         1 PF4      -0.228000
     19 C22          6.0310     1.2600     0.0280 cd         1 PF4      -0.132000
     20 N4           1.6310     1.2760     0.0740 nd         1 PF4      -0.660000
     21 C1           0.3590     0.7290     0.0720 cd         1 PF4       0.322500
     22 C3          -0.8410     1.6030     0.0000 ca         1 PF4      -0.147500
     23 C12         -1.8440     3.8290     0.2770 ca         1 PF4      -0.178000
     24 C17         -3.0780     3.3490    -0.2050 ca         1 PF4       0.141100
     25 O21         -4.1980     4.1470    -0.3160 os         1 PF4      -0.343100
     26 C25         -4.1920     5.5340     0.0660 c3         1 PF4       0.149900
     27 H7           0.2050     3.3630     0.7390 ha         1 PF4       0.122500
     28 H13         -4.1230     1.6400    -1.0030 ha         1 PF4       0.120500
     29 H8          -2.1880     0.1340    -0.8890 ha         1 PF4       0.122500
     30 H18          4.1720     2.4610     0.1080 ha         1 PF4       0.154000
     31 H16         -3.4010    -2.3810     1.9370 ha         1 PF4       0.125000
     32 H26         -4.7650    -6.1490    -0.2310 h1         1 PF4       0.042033
     33 H26A        -3.9950    -5.2340    -1.5430 h1         1 PF4       0.042033
     34 H26B        -3.0030    -6.2260    -0.4400 h1         1 PF4       0.042033
     35 H15         -1.7060    -4.4680    -1.4550 ha         1 PF4       0.125000
     36 H10          0.0980    -2.7950    -1.5830 ha         1 PF4       0.120000
     37 H11         -1.5740    -0.7030     1.8090 ha         1 PF4       0.120000
     38 H23          7.3710    -0.5100    -0.0750 h4         1 PF4       0.152000
     39 H22          6.7560     2.0690     0.0600 ha         1 PF4       0.138000
     40 H12         -1.7210     4.8630     0.5840 ha         1 PF4       0.120500
     41 H25         -5.1810     5.9780    -0.1000 h1         1 PF4       0.039700
     42 H25A        -3.9440     5.6440     1.1300 h1         1 PF4       0.039700
     43 H25B        -3.4620     6.0990    -0.5270 h1         1 PF4       0.039700
     44 HN6          2.2380    -1.8500    -0.0710 hn         1 PF4       0.356000
@<TRIPOS>BOND
     1     1    22 ar  
     2     1    23 ar  
     3     1    27 1   
     4     2    15 1   
     5     2    16 1   
     6     2    20 2   
     7     3     5 ar  
     8     3    24 ar  
     9     3    28 1   
    10     4     7 ar  
    11     4     9 1   
    12     4    10 ar  
    13     5    22 ar  
    14     5    29 1   
    15     6    16 2   
    16     6    19 1   
    17     6    30 1   
    18     7    12 ar  
    19     7    31 1   
    20     8     9 1   
    21     8    32 1   
    22     8    33 1   
    23     8    34 1   
    24    10    11 ar  
    25    10    35 1   
    26    11    13 ar  
    27    11    36 1   
    28    12    13 ar  
    29    12    37 1   
    30    13    14 1   
    31    14    15 1   
    32    14    21 2   
    33    15    44 1   
    34    16    17 1   
    35    17    18 1   
    36    18    19 2   
    37    18    38 1   
    38    19    39 1   
    39    20    21 1   
    40    21    22 1   
    41    23    24 ar  
    42    23    40 1   
    43    24    25 1   
    44    25    26 1   
    45    26    41 1   
    46    26    42 1   
    47    26    43 1   
@<TRIPOS>SUBSTRUCTURE
     1 PF4         1 TEMP              0 ****  ****    0 ROOT
