@<TRIPOS>MOLECULE
PF4
   44    47     1     0     0
SMALL
abcg2


@<TRIPOS>ATOM
      1 C7          -0.7910     2.9630     0.4620 ca         1 PF4      -0.054500
      2 C9           2.3710     0.2520    -0.0700 cc         1 PF4       0.489000
      3 C13         -3.1010     2.2270    -0.8620 ca         1 PF4      -0.178000
      4 C20         -2.6790    -3.5960     0.2440 ca         1 PF4       0.148100
      5 C8          -2.0300     1.3590    -0.8000 ca         1 PF4      -0.054500
      6 C18          4.5860     1.4290     0.1370 cd         1 PF4      -0.087000
      7 C16         -2.7720    -2.4280     1.0080 ca         1 PF4      -0.173500
      8 C26         -3.6170    -5.6980    -0.3310 c3         1 PF4       0.147900
      9 O24         -3.6710    -4.4890     0.4020 os         1 PF4      -0.338100
     10 C15         -1.5930    -3.7640    -0.6110 ca         1 PF4      -0.173500
     11 C10         -0.6250    -2.7730    -0.6980 ca         1 PF4      -0.059000
     12 C11         -1.7980    -1.4560     0.9170 ca         1 PF4      -0.059000
     13 C5          -0.7060    -1.6060     0.0550 ca         1 PF4      -0.060000
     14 C2           0.3290    -0.5800    -0.0280 cc         1 PF4      -0.127000
     15 N6           1.6600    -0.8970    -0.0440 na         1 PF4      -0.289500
     16 C14          3.8150     0.3180    -0.0740 cc         1 PF4      -0.252500
     17 S19          4.8000    -1.0670    -0.3740 ss         1 PF4       0.174000
     18 C23          6.2390    -0.1550    -0.2030 cc         1 PF4      -0.228000
     19 C22          5.9740     1.1540     0.0630 cd         1 PF4      -0.132000
     20 N4           1.5710     1.2920    -0.0860 nd         1 PF4      -0.660000
     21 C1           0.2980     0.8010    -0.0680 cd         1 PF4       0.322500
     22 C3          -0.8530     1.7030    -0.1270 ca         1 PF4      -0.147500
     23 C12         -1.8590     3.8490     0.4060 ca         1 PF4      -0.178000
     24 C17         -3.0280     3.4830    -0.2560 ca         1 PF4       0.141100
     25 O21         -4.1190     4.2650    -0.3670 os         1 PF4      -0.343100
     26 C25         -4.0910     5.5510     0.2190 c3         1 PF4       0.149900
     27 H7           0.1090     3.2650     0.9830 ha         1 PF4       0.122500
     28 H13         -4.0000     1.9430    -1.3940 ha         1 PF4       0.120500
     29 H8          -2.1070     0.4020    -1.3000 ha         1 PF4       0.122500
     30 H18          4.1690     2.4030     0.3470 ha         1 PF4       0.154000
     31 H16         -3.6080    -2.2990     1.6840 ha         1 PF4       0.125000
     32 H26         -4.4890    -6.2760    -0.0370 h1         1 PF4       0.042033
     33 H26A        -3.6580    -5.5230    -1.4090 h1         1 PF4       0.042033
     34 H26B        -2.7170    -6.2750    -0.1010 h1         1 PF4       0.042033
     35 H15         -1.4860    -4.6500    -1.2210 ha         1 PF4       0.125000
     36 H10          0.2000    -2.9180    -1.3860 ha         1 PF4       0.120000
     37 H11         -1.8790    -0.5690     1.5320 ha         1 PF4       0.120000
     38 H23          7.1990    -0.6350    -0.3120 h4         1 PF4       0.152000
     39 H22          6.7440     1.8980     0.2060 ha         1 PF4       0.138000
     40 H12         -1.7600     4.8140     0.8860 ha         1 PF4       0.120500
     41 H25         -5.0580     6.0050     0.0160 h1         1 PF4       0.039700
     42 H25A        -3.9450     5.5040     1.3010 h1         1 PF4       0.039700
     43 H25B        -3.3090     6.1810    -0.2140 h1         1 PF4       0.039700
     44 HN6          2.0270    -1.8340     0.0470 hn         1 PF4       0.356000
@<TRIPOS>BOND
     1     1    22 ar  
     2     1    23 ar  
     3     1    27 1   
     4     2    15 1   
     5     2    16 1   
     6     2    20 2   
     7     3     5 ar  
     8     3    24 ar  
     9     3    28 1   
    10     4     7 ar  
    11     4     9 1   
    12     4    10 ar  
    13     5    22 ar  
    14     5    29 1   
    15     6    16 2   
    16     6    19 1   
    17     6    30 1   
    18     7    12 ar  
    19     7    31 1   
    20     8     9 1   
    21     8    32 1   
    22     8    33 1   
    23     8    34 1   
    24    10    11 ar  
    25    10    35 1   
    26    11    13 ar  
    27    11    36 1   
    28    12    13 ar  
    29    12    37 1   
    30    13    14 1   
    31    14    15 1   
    32    14    21 2   
    33    15    44 1   
    34    16    17 1   
    35    17    18 1   
    36    18    19 2   
    37    18    38 1   
    38    19    39 1   
    39    20    21 1   
    40    21    22 1   
    41    23    24 ar  
    42    23    40 1   
    43    24    25 1   
    44    25    26 1   
    45    26    41 1   
    46    26    42 1   
    47    26    43 1   
@<TRIPOS>SUBSTRUCTURE
     1 PF4         1 TEMP              0 ****  ****    0 ROOT
