@<TRIPOS>MOLECULE
PF5
   22    22     1     0     0
SMALL
No Charge or Current Charge


@<TRIPOS>ATOM
      1 N            3.4980    -4.4010    -2.2580 n8         1 PF5      -0.898800
      2 CA           3.5540    -3.1500    -3.1110 c3         1 PF5       0.014500
      3 CB           2.8290    -1.9710    -2.4070 c3         1 PF5      -0.015100
      4 CG           1.3770    -2.2860    -2.0200 ca         1 PF5      -0.069300
      5 CD1          1.0210    -2.5620    -0.6790 ca         1 PF5       0.138900
      6 FD1          1.9610    -2.5480     0.2960 f          1 PF5      -0.110400
      7 CD2          0.3660    -2.3050    -3.0080 ca         1 PF5       0.138900
      8 FD2          0.6730    -2.0370    -4.2990 f          1 PF5      -0.110400
      9 CE1         -0.3140    -2.8530    -0.3370 ca         1 PF5       0.047400
     10 FE1         -0.6410    -3.1150     0.9500 f          1 PF5      -0.119400
     11 CE2         -0.9680    -2.5970    -2.6650 ca         1 PF5       0.047400
     12 FE2         -1.9260    -2.6110    -3.6220 f          1 PF5      -0.119400
     13 CZ          -1.3080    -2.8720    -1.3300 ca         1 PF5       0.074900
     14 FZ          -2.5910    -3.1520    -1.0000 f          1 PF5      -0.120900
     15 C            4.9870    -2.6830    -3.6170 c          1 PF5       0.908600
     16 O            5.1770    -2.5740    -4.8230 o          1 PF5      -0.828300
     17 OXT          5.8880    -2.5520    -2.7940 o          1 PF5      -0.828300
     18 H            3.9220    -5.1800    -2.7730 hn         1 PF5       0.335300
     19 H2           4.1160    -4.2750    -1.4490 hn         1 PF5       0.335300
     20 HA           2.9800    -3.3800    -4.0180 h1         1 PF5       0.040700
     21 HB2          3.4130    -1.6650    -1.5310 hc         1 PF5       0.069200
     22 HB3          2.8450    -1.1030    -3.0780 hc         1 PF5       0.069200
@<TRIPOS>BOND
     1     1     2 1   
     2     1    18 1   
     3     1    19 1   
     4     2     3 1   
     5     2    15 1   
     6     2    20 1   
     7     3     4 1   
     8     3    21 1   
     9     3    22 1   
    10     4     5 ar  
    11     4     7 ar  
    12     5     6 1   
    13     5     9 ar  
    14     7     8 1   
    15     7    11 ar  
    16     9    10 1   
    17     9    13 ar  
    18    11    12 1   
    19    11    13 ar  
    20    13    14 1   
    21    15    16 1   
    22    15    17 1   
@<TRIPOS>SUBSTRUCTURE
     1 PF5         1 TEMP              0 ****  ****    0 ROOT
