@<TRIPOS>MOLECULE
PF5
   22    22     1     0     0
SMALL
bcc


@<TRIPOS>ATOM
      1 N            3.4330    -4.2370    -2.0610 n8         1 PF5      -0.898800
      2 CA           3.5070    -3.1730    -3.0450 c3         1 PF5       0.014500
      3 CB           2.8090    -1.9100    -2.5070 c3         1 PF5      -0.015100
      4 CG           1.4000    -2.2070    -2.0920 ca         1 PF5      -0.069300
      5 CD1          1.0740    -2.5420    -0.7880 ca         1 PF5       0.138900
      6 FD1          2.0060    -2.5100     0.1640 f          1 PF5      -0.110400
      7 CD2          0.3680    -2.2450    -3.0160 ca         1 PF5       0.138900
      8 FD2          0.6080    -1.9360    -4.2920 f          1 PF5      -0.110400
      9 CE1         -0.2060    -2.9080    -0.4180 ca         1 PF5       0.047400
     10 FE1         -0.4820    -3.2340     0.8420 f          1 PF5      -0.119400
     11 CE2         -0.9220    -2.6100    -2.6770 ca         1 PF5       0.047400
     12 FE2         -1.8790    -2.6460    -3.6000 f          1 PF5      -0.119400
     13 CZ          -1.2080    -2.9480    -1.3690 ca         1 PF5       0.074900
     14 FZ          -2.4360    -3.3150    -1.0210 f          1 PF5      -0.120900
     15 C            4.9350    -2.7910    -3.5290 c          1 PF5       0.908600
     16 O            4.9830    -1.9280    -4.4280 o          1 PF5      -0.828300
     17 OXT          5.8960    -3.3650    -2.9820 o          1 PF5      -0.828300
     18 H            3.6570    -5.1150    -2.5120 hn         1 PF5       0.335300
     19 H2           4.1800    -4.0980    -1.3890 hn         1 PF5       0.335300
     20 HA           2.9440    -3.5020    -3.9250 h1         1 PF5       0.040700
     21 HB2          3.3700    -1.5160    -1.6580 hc         1 PF5       0.069200
     22 HB3          2.8210    -1.1350    -3.2710 hc         1 PF5       0.069200
@<TRIPOS>BOND
     1     1     2 1   
     2     1    18 1   
     3     1    19 1   
     4     2     3 1   
     5     2    15 1   
     6     2    20 1   
     7     3     4 1   
     8     3    21 1   
     9     3    22 1   
    10     4     5 ar  
    11     4     7 ar  
    12     5     6 1   
    13     5     9 ar  
    14     7     8 1   
    15     7    11 ar  
    16     9    10 1   
    17     9    13 ar  
    18    11    12 1   
    19    11    13 ar  
    20    13    14 1   
    21    15    16 1   
    22    15    17 1   
@<TRIPOS>SUBSTRUCTURE
     1 PF5         1 TEMP              0 ****  ****    0 ROOT
