@<TRIPOS>MOLECULE
PF6
   50    54     1     0     0
SMALL
No Charge or Current Charge


@<TRIPOS>ATOM
      1 C7          -2.2460     0.8880     1.4490 ca         1 PF6      -0.053000
      2 C6          -6.5240     1.3820     0.4060 cc         1 PF6      -0.169000
      3 C13         -3.1810    -2.2410     0.9420 ca         1 PF6      -0.157500
      4 C20          2.2030     0.9700    -0.6240 c3         1 PF6       0.108300
      5 C21          3.6320     0.6130    -0.2100 ca         1 PF6       0.365300
      6 C8          -2.0470     1.7040    -0.8310 ca         1 PF6      -0.053000
      7 C16         -2.3390    -3.0190     0.1290 ca         1 PF6       0.333400
      8 C26          6.2180    -0.0620     0.4760 ca         1 PF6      -0.082000
      9 C29          7.5690    -1.9610    -1.0900 ca         1 PF6      -0.103000
     10 C30          8.2130    -1.3810     0.0140 ca         1 PF6      -0.106000
     11 C28          7.5380    -0.4310     0.7980 ca         1 PF6      -0.091000
     12 C25          5.5410     0.8900     1.2590 ca         1 PF6      -0.066000
     13 C23          4.2270     1.2300     0.9050 ca         1 PF6      -0.139000
     14 C24          5.5560    -0.6410    -0.6370 ca         1 PF6       0.277000
     15 C27          6.2500    -1.5910    -1.4100 ca         1 PF6      -0.082000
     16 N22          4.2870    -0.3040    -0.9690 nb         1 PF6      -0.676000
     17 O18          1.2940     0.7100     0.4680 os         1 PF6      -0.352100
     18 C15         -0.0610     0.9510     0.3700 ca         1 PF6       0.149100
     19 C12         -0.6590     1.4800    -0.7930 ca         1 PF6      -0.176000
     20 C11         -0.8590     0.6650     1.4870 ca         1 PF6      -0.176000
     21 C3          -2.8550     1.3850     0.2790 ca         1 PF6      -0.150500
     22 C1          -4.3070     1.6350     0.2390 cd         1 PF6       0.318500
     23 C2          -5.3380     0.7440     0.6470 cd         1 PF6      -0.189300
     24 N9          -6.1500     2.6050    -0.1420 na         1 PF6       0.000800
     25 N4          -4.7810     2.7630    -0.2600 nc         1 PF6      -0.511800
     26 C5          -5.1760    -0.6580     1.1900 c3         1 PF6       0.052200
     27 C10         -4.2480    -1.5360     0.3560 ca         1 PF6      -0.036300
     28 N19         -2.5070    -3.1370    -1.2080 nb         1 PF6      -0.667000
     29 C17         -3.5350    -2.4620    -1.7720 ca         1 PF6       0.333400
     30 C14         -4.4220    -1.6600    -1.0340 ca         1 PF6      -0.157500
     31 H7          -2.8440     0.6770     2.3310 ha         1 PF6       0.120000
     32 H6          -7.5550     1.0810     0.5530 h4         1 PF6       0.154000
     33 H13         -2.9930    -2.1850     2.0100 ha         1 PF6       0.121500
     34 H20          2.1780     2.0310    -0.9020 h1         1 PF6       0.059200
     35 H20A         1.9200     0.3810    -1.5060 h1         1 PF6       0.059200
     36 H8          -2.4980     2.1110    -1.7340 ha         1 PF6       0.120000
     37 H16         -1.5040    -3.5680     0.5630 h4         1 PF6       0.016600
     38 H29          8.0900    -2.6980    -1.6990 ha         1 PF6       0.117000
     39 H30          9.2330    -1.6660     0.2630 ha         1 PF6       0.116000
     40 H28          8.0420     0.0160     1.6530 ha         1 PF6       0.115000
     41 H25          6.0190     1.3540     2.1190 ha         1 PF6       0.120000
     42 H23          3.6700     1.9600     1.4860 ha         1 PF6       0.140000
     43 H27          5.7590    -2.0450    -2.2660 ha         1 PF6       0.131000
     44 H12         -0.0690     1.7230    -1.6710 ha         1 PF6       0.124000
     45 H11         -0.4000     0.2720     2.3900 ha         1 PF6       0.124000
     46 H5          -4.8240    -0.6070     2.2260 hc         1 PF6       0.054700
     47 H5A         -6.1590    -1.1410     1.2440 hc         1 PF6       0.054700
     48 H17         -3.6520    -2.5680    -2.8500 h4         1 PF6       0.016600
     49 H14         -5.2270    -1.1380    -1.5430 ha         1 PF6       0.121500
     50 HN9         -6.7900     3.3380    -0.4500 hn         1 PF6       0.374000
@<TRIPOS>BOND
     1     1    20 ar  
     2     1    21 ar  
     3     1    31 1   
     4     2    23 2   
     5     2    24 1   
     6     2    32 1   
     7     3     7 ar  
     8     3    27 ar  
     9     3    33 1   
    10     4     5 1   
    11     4    17 1   
    12     4    34 1   
    13     4    35 1   
    14     5    13 ar  
    15     5    16 ar  
    16     6    19 ar  
    17     6    21 ar  
    18     6    36 1   
    19     7    28 ar  
    20     7    37 1   
    21     8    11 ar  
    22     8    12 ar  
    23     8    14 ar  
    24     9    10 ar  
    25     9    15 ar  
    26     9    38 1   
    27    10    11 ar  
    28    10    39 1   
    29    11    40 1   
    30    12    13 ar  
    31    12    41 1   
    32    13    42 1   
    33    14    15 ar  
    34    14    16 ar  
    35    15    43 1   
    36    17    18 1   
    37    18    19 ar  
    38    18    20 ar  
    39    19    44 1   
    40    20    45 1   
    41    21    22 1   
    42    22    23 1   
    43    22    25 2   
    44    23    26 1   
    45    24    25 1   
    46    24    50 1   
    47    26    27 1   
    48    26    46 1   
    49    26    47 1   
    50    27    30 ar  
    51    28    29 ar  
    52    29    30 ar  
    53    29    48 1   
    54    30    49 1   
@<TRIPOS>SUBSTRUCTURE
     1 PF6         1 TEMP              0 ****  ****    0 ROOT
