@<TRIPOS>MOLECULE
PF6
   50    54     1     0     0
SMALL
bcc


@<TRIPOS>ATOM
      1 C7          -2.0250     1.1680     1.3730 ca         1 PF6      -0.071000
      2 C6          -6.2360     1.6000     0.1230 cc         1 PF6      -0.136300
      3 C13         -3.3540    -2.0290     0.5840 ca         1 PF6      -0.240800
      4 C20          2.3240     0.5780    -0.5150 c3         1 PF6       0.085100
      5 C21          3.7170     0.2750    -0.0320 ca         1 PF6       0.430600
      6 C8          -1.7750     1.3970    -0.9910 ca         1 PF6      -0.071000
      7 C16         -3.0070    -3.0750    -0.2590 ca         1 PF6       0.398700
      8 C26          6.3110    -0.2450     0.6910 ca         1 PF6      -0.147300
      9 C29          8.1130    -0.7210    -1.3860 ca         1 PF6      -0.121000
     10 C30          8.5500    -0.7560    -0.0440 ca         1 PF6      -0.124000
     11 C28          7.6680    -0.5240     0.9740 ca         1 PF6      -0.109000
     12 C25          5.3500     0.0040     1.6920 ca         1 PF6      -0.084000
     13 C23          4.0560     0.2660     1.3400 ca         1 PF6      -0.222300
     14 C24          5.8710    -0.2100    -0.6550 ca         1 PF6       0.407600
     15 C27          6.8040    -0.4540    -1.6880 ca         1 PF6      -0.165300
     16 N22          4.5850     0.0470    -0.9830 nb         1 PF6      -0.676000
     17 O18          1.4390     0.5800     0.5780 os         1 PF6      -0.328900
     18 C15          0.1380     0.8650     0.3650 ca         1 PF6       0.149100
     19 C12         -0.4160     1.1260    -0.8840 ca         1 PF6      -0.194000
     20 C11         -0.6770     0.8940     1.4970 ca         1 PF6      -0.194000
     21 C3          -2.6020     1.4150     0.1260 ca         1 PF6      -0.150500
     22 C1          -4.0400     1.6790     0.0020 cd         1 PF6       0.383800
     23 C2          -5.1100     0.9480     0.5710 cd         1 PF6      -0.254600
     24 N9          -5.8120     2.6190    -0.6410 na         1 PF6       0.000400
     25 N4          -4.4910     2.6880    -0.7290 nc         1 PF6      -0.511800
     26 C5          -5.0560    -0.3230     1.3620 c3         1 PF6       0.052200
     27 C10         -4.6270    -1.4800     0.4960 ca         1 PF6      -0.036300
     28 N19         -3.8310    -3.5980    -1.1580 nb         1 PF6      -0.667000
     29 C17         -5.0510    -3.0730    -1.2410 ca         1 PF6       0.398700
     30 C14         -5.4900    -2.0260    -0.4490 ca         1 PF6      -0.240800
     31 H7          -2.6350     1.2060     2.2660 ha         1 PF6       0.138000
     32 H6          -7.2830     1.4030     0.2880 h4         1 PF6       0.172000
     33 H13         -2.6320    -1.6460     1.2940 ha         1 PF6       0.139500
     34 H20          2.3270     1.5540    -1.0180 h1         1 PF6       0.059200
     35 H20A         2.0370    -0.1710    -1.2620 h1         1 PF6       0.059200
     36 H8          -2.1930     1.5830    -1.9720 ha         1 PF6       0.138000
     37 H16         -2.0150    -3.5090    -0.1990 h4         1 PF6       0.016600
     38 H29          8.8220    -0.9060    -2.1820 ha         1 PF6       0.135000
     39 H30          9.5890    -0.9690     0.1730 ha         1 PF6       0.134000
     40 H28          7.9960    -0.5500     2.0060 ha         1 PF6       0.133000
     41 H25          5.6440    -0.0130     2.7340 ha         1 PF6       0.138000
     42 H23          3.3110     0.4600     2.0980 ha         1 PF6       0.158000
     43 H27          6.4620    -0.4240    -2.7140 ha         1 PF6       0.149000
     44 H12          0.1850     1.1140    -1.7840 ha         1 PF6       0.142000
     45 H11         -0.2450     0.7060     2.4720 ha         1 PF6       0.142000
     46 H5          -4.3740    -0.2360     2.2100 hc         1 PF6       0.054700
     47 H5A         -6.0440    -0.5290     1.7780 hc         1 PF6       0.054700
     48 H17         -5.7160    -3.5100    -1.9780 h4         1 PF6       0.016600
     49 H14         -6.4960    -1.6440    -0.5710 ha         1 PF6       0.139500
     50 HN9         -6.3810     3.3050    -1.1090 hn         1 PF6       0.323700
@<TRIPOS>BOND
     1     1    20 ar  
     2     1    21 ar  
     3     1    31 1   
     4     2    23 2   
     5     2    24 1   
     6     2    32 1   
     7     3     7 ar  
     8     3    27 ar  
     9     3    33 1   
    10     4     5 1   
    11     4    17 1   
    12     4    34 1   
    13     4    35 1   
    14     5    13 ar  
    15     5    16 ar  
    16     6    19 ar  
    17     6    21 ar  
    18     6    36 1   
    19     7    28 ar  
    20     7    37 1   
    21     8    11 ar  
    22     8    12 ar  
    23     8    14 ar  
    24     9    10 ar  
    25     9    15 ar  
    26     9    38 1   
    27    10    11 ar  
    28    10    39 1   
    29    11    40 1   
    30    12    13 ar  
    31    12    41 1   
    32    13    42 1   
    33    14    15 ar  
    34    14    16 ar  
    35    15    43 1   
    36    17    18 1   
    37    18    19 ar  
    38    18    20 ar  
    39    19    44 1   
    40    20    45 1   
    41    21    22 1   
    42    22    23 1   
    43    22    25 2   
    44    23    26 1   
    45    24    25 1   
    46    24    50 1   
    47    26    27 1   
    48    26    46 1   
    49    26    47 1   
    50    27    30 ar  
    51    28    29 ar  
    52    29    30 ar  
    53    29    48 1   
    54    30    49 1   
@<TRIPOS>SUBSTRUCTURE
     1 PF6         1 TEMP              0 ****  ****    0 ROOT
