@<TRIPOS>MOLECULE
PF7
   37    39     1     0     0
SMALL
abcg2


@<TRIPOS>ATOM
      1 O19         50.2470   -15.3490   -34.0690 o          1 PF7      -0.737500
      2 C18         50.1780   -15.4670   -35.3110 c          1 PF7       0.727000
      3 N15         49.1460   -14.7520   -35.9660 n          1 PF7      -0.434800
      4 C16         48.0030   -14.3050   -35.2010 c6         1 PF7       0.101000
      5 C17         46.9160   -15.3740   -35.1180 c6         1 PF7      -0.104900
      6 C12         46.4960   -15.8400   -36.5110 c6         1 PF7      -0.052700
      7 C13         47.7260   -16.2340   -37.3280 c6         1 PF7      -0.104900
      8 C14         48.7780   -15.1280   -37.3130 c6         1 PF7       0.101000
      9 C11         45.4840   -16.9910   -36.4620 c3         1 PF7      -0.032100
     10 C9          44.1900   -16.6110   -35.8070 ca         1 PF7      -0.104300
     11 C10         43.8480   -16.9930   -34.5390 ca         1 PF7      -0.069000
     12 C3          42.6300   -16.5590   -33.9710 ca         1 PF7      -0.075000
     13 C4          42.2210   -16.9150   -32.6660 ca         1 PF7      -0.087000
     14 C5          41.0320   -16.4580   -32.1650 ca         1 PF7      -0.119000
     15 C6          40.2000   -15.6300   -32.9480 ca         1 PF7      -0.116000
     16 C1          40.5710   -15.2730   -34.2170 ca         1 PF7      -0.082000
     17 C2          41.7940   -15.7300   -34.7570 ca         1 PF7       0.258000
     18 N7          42.1330   -15.3620   -36.0170 nb         1 PF7      -0.674000
     19 C8          43.2680   -15.7860   -36.5000 ca         1 PF7       0.358900
     20 OXT         50.9560   -16.1250   -36.0340 o          1 PF7      -0.737500
     21 H161        48.3250   -14.0060   -34.2070 h1         1 PF7       0.034450
     22 H162        47.5860   -13.4130   -35.6850 h1         1 PF7       0.034450
     23 H141        48.3750   -14.2460   -37.8270 h1         1 PF7       0.034450
     24 H142        49.6660   -15.4350   -37.8590 h1         1 PF7       0.034450
     25 H171        47.2970   -16.2290   -34.5450 hc         1 PF7       0.033700
     26 H172        46.0560   -14.9830   -34.5680 hc         1 PF7       0.033700
     27 H12         46.0200   -14.9890   -37.0200 hc         1 PF7       0.030700
     28 H131        48.1640   -17.1510   -36.9150 hc         1 PF7       0.033700
     29 H132        47.4320   -16.4600   -38.3580 hc         1 PF7       0.033700
     30 H111        45.2860   -17.3300   -37.4840 hc         1 PF7       0.045700
     31 H112        45.9300   -17.8390   -35.9340 hc         1 PF7       0.045700
     32 H10         44.5070   -17.6290   -33.9570 ha         1 PF7       0.124000
     33 H8          43.5050   -15.4760   -37.5140 h4         1 PF7       0.017100
     34 H4          42.8620   -17.5520   -32.0680 ha         1 PF7       0.114000
     35 H5          40.7250   -16.7320   -31.1640 ha         1 PF7       0.106000
     36 H6          39.2640   -15.2750   -32.5390 ha         1 PF7       0.106000
     37 H1          39.9410   -14.6380   -34.8260 ha         1 PF7       0.123000
@<TRIPOS>BOND
     1     1     2 1   
     2     2     3 1   
     3     2    20 1   
     4     3     4 1   
     5     3     8 1   
     6     4     5 1   
     7     4    21 1   
     8     4    22 1   
     9     5     6 1   
    10     5    25 1   
    11     5    26 1   
    12     6     7 1   
    13     6     9 1   
    14     6    27 1   
    15     7     8 1   
    16     7    28 1   
    17     7    29 1   
    18     8    23 1   
    19     8    24 1   
    20     9    10 1   
    21     9    30 1   
    22     9    31 1   
    23    10    11 ar  
    24    10    19 ar  
    25    11    12 ar  
    26    11    32 1   
    27    12    13 ar  
    28    12    17 ar  
    29    13    14 ar  
    30    13    34 1   
    31    14    15 ar  
    32    14    35 1   
    33    15    16 ar  
    34    15    36 1   
    35    16    17 ar  
    36    16    37 1   
    37    17    18 ar  
    38    18    19 ar  
    39    19    33 1   
@<TRIPOS>SUBSTRUCTURE
     1 PF7         1 TEMP              0 ****  ****    0 ROOT
