@<TRIPOS>MOLECULE
PF7
   37    39     1     0     0
SMALL
No Charge or Current Charge


@<TRIPOS>ATOM
      1 O19         50.6850   -13.7120   -34.6670 o          1 PF7      -0.737500
      2 C18         50.5050   -14.3360   -35.6990 c          1 PF7       0.727000
      3 N15         49.2700   -14.9910   -35.8890 n          1 PF7      -0.434800
      4 C16         48.1260   -14.7140   -34.9660 c6         1 PF7       0.101000
      5 C17         46.9630   -15.7340   -35.0170 c6         1 PF7      -0.104900
      6 C12         46.5200   -16.0340   -36.4650 c6         1 PF7      -0.052700
      7 C13         47.7450   -16.5700   -37.2330 c6         1 PF7      -0.104900
      8 C14         48.9200   -15.5630   -37.2260 c6         1 PF7       0.101000
      9 C11         45.3280   -17.0350   -36.5250 c3         1 PF7      -0.032100
     10 C9          44.0610   -16.5200   -35.8510 ca         1 PF7      -0.104300
     11 C10         43.6180   -17.0640   -34.6320 ca         1 PF7      -0.069000
     12 C3          42.4460   -16.5490   -34.0510 ca         1 PF7      -0.075000
     13 C4          41.9770   -17.0700   -32.8290 ca         1 PF7      -0.087000
     14 C5          40.8070   -16.5550   -32.2480 ca         1 PF7      -0.119000
     15 C6          40.1050   -15.5200   -32.8870 ca         1 PF7      -0.116000
     16 C1          40.5750   -15.0000   -34.1060 ca         1 PF7      -0.082000
     17 C2          41.7460   -15.5020   -34.7060 ca         1 PF7       0.258000
     18 N7          42.1760   -14.9830   -35.8800 nb         1 PF7      -0.674000
     19 C8          43.3070   -15.4830   -36.4330 ca         1 PF7       0.358900
     20 OXT         51.3550   -14.4260   -36.5700 o          1 PF7      -0.737500
     21 H161        48.4880   -14.6680   -33.9290 h1         1 PF7       0.034450
     22 H162        47.7280   -13.7190   -35.2120 h1         1 PF7       0.034450
     23 H141        48.6690   -14.7270   -37.8940 h1         1 PF7       0.034450
     24 H142        49.7980   -16.0650   -37.6560 h1         1 PF7       0.034450
     25 H171        47.2770   -16.6650   -34.5260 hc         1 PF7       0.033700
     26 H172        46.1210   -15.3430   -34.4300 hc         1 PF7       0.033700
     27 H12         46.1820   -15.1020   -36.9400 hc         1 PF7       0.030700
     28 H131        48.0790   -17.5160   -36.7860 hc         1 PF7       0.033700
     29 H132        47.4720   -16.7980   -38.2730 hc         1 PF7       0.033700
     30 H111        45.0990   -17.2630   -37.5730 hc         1 PF7       0.045700
     31 H112        45.6280   -17.9910   -36.0780 hc         1 PF7       0.045700
     32 H10         44.1740   -17.8640   -34.1480 ha         1 PF7       0.124000
     33 H8          43.6180   -15.0360   -37.3770 h4         1 PF7       0.017100
     34 H4          42.5170   -17.8710   -32.3300 ha         1 PF7       0.114000
     35 H5          40.4450   -16.9580   -31.3050 ha         1 PF7       0.106000
     36 H6          39.1990   -15.1200   -32.4380 ha         1 PF7       0.106000
     37 H1          40.0260   -14.1990   -34.5940 ha         1 PF7       0.123000
@<TRIPOS>BOND
     1     1     2 1   
     2     2     3 1   
     3     2    20 1   
     4     3     4 1   
     5     3     8 1   
     6     4     5 1   
     7     4    21 1   
     8     4    22 1   
     9     5     6 1   
    10     5    25 1   
    11     5    26 1   
    12     6     7 1   
    13     6     9 1   
    14     6    27 1   
    15     7     8 1   
    16     7    28 1   
    17     7    29 1   
    18     8    23 1   
    19     8    24 1   
    20     9    10 1   
    21     9    30 1   
    22     9    31 1   
    23    10    11 ar  
    24    10    19 ar  
    25    11    12 ar  
    26    11    32 1   
    27    12    13 ar  
    28    12    17 ar  
    29    13    14 ar  
    30    13    34 1   
    31    14    15 ar  
    32    14    35 1   
    33    15    16 ar  
    34    15    36 1   
    35    16    17 ar  
    36    16    37 1   
    37    17    18 ar  
    38    18    19 ar  
    39    19    33 1   
@<TRIPOS>SUBSTRUCTURE
     1 PF7         1 TEMP              0 ****  ****    0 ROOT
