@<TRIPOS>MOLECULE
PF8
   47    51     1     0     0
SMALL
bcc


@<TRIPOS>ATOM
      1 C7          -1.6450     1.8790    -0.6300 ca         1 PF8      -0.066500
      2 C6          -6.2040     1.5060     0.0750 cc         1 PF8      -0.119300
      3 C13         -0.7500    -0.2360     0.9090 ca         1 PF8      -0.195500
      4 C20          3.7610     0.1920    -0.2620 ca         1 PF8       0.426600
      5 C8          -2.0950     0.0740     0.8700 ca         1 PF8      -0.066500
      6 C16          0.1660     0.5180     0.1730 ca         1 PF8       0.151100
      7 C19          2.4250     0.8420    -0.4850 c3         1 PF8       0.084100
      8 C26          7.1360     1.3430     0.0010 ca         1 PF8      -0.164300
      9 C29          8.6180    -0.5470     0.2640 ca         1 PF8      -0.123000
     10 C28          8.4010     0.8440     0.1580 ca         1 PF8      -0.121000
     11 C23          6.0280     0.4690    -0.0570 ca         1 PF8       0.403600
     12 N21          4.7890     0.9960    -0.2060 nb         1 PF8      -0.666000
     13 C27          7.5620    -1.4150     0.2110 ca         1 PF8      -0.110000
     14 C25          6.2470    -0.9260     0.0500 ca         1 PF8      -0.144300
     15 C24          5.1130    -1.7660    -0.0120 ca         1 PF8      -0.084000
     16 C22          3.8740    -1.2170    -0.1690 ca         1 PF8      -0.222300
     17 O18          1.4580     0.1480     0.2750 os         1 PF8      -0.322900
     18 C12         -0.2890     1.5830    -0.5980 ca         1 PF8      -0.195500
     19 C3          -2.5710     1.1330     0.0930 ca         1 PF8      -0.163500
     20 C1          -3.9950     1.4830     0.0670 cd         1 PF8       0.400800
     21 C2          -5.1330     0.6340     0.0520 cd         1 PF8      -0.227300
     22 N9          -5.6900     2.7390     0.0870 na         1 PF8       0.005400
     23 N4          -4.3640     2.7540     0.0910 nc         1 PF8      -0.517800
     24 C5          -5.2240    -0.8220    -0.0360 ca         1 PF8       0.049000
     25 C11         -4.3600    -1.5730    -0.8330 ca         1 PF8      -0.244800
     26 C15         -4.5170    -2.9470    -0.8920 ca         1 PF8       0.397700
     27 N17         -5.4600    -3.6140    -0.2340 nb         1 PF8      -0.667000
     28 C14         -6.2880    -2.9000     0.5190 ca         1 PF8       0.397700
     29 C10         -6.2130    -1.5230     0.6530 ca         1 PF8      -0.244800
     30 H7          -1.9830     2.7080    -1.2390 ha         1 PF8       0.141000
     31 H6          -7.2660     1.3260     0.0530 h4         1 PF8       0.176000
     32 H13         -0.3980    -1.0590     1.5180 ha         1 PF8       0.142500
     33 H8          -2.7810    -0.5120     1.4680 ha         1 PF8       0.141000
     34 H19          2.4860     1.8950    -0.1960 h1         1 PF8       0.057700
     35 H19A         2.1760     0.8030    -1.5530 h1         1 PF8       0.057700
     36 H26          6.9620     2.4090    -0.0790 ha         1 PF8       0.149000
     37 H29          9.6250    -0.9220     0.3880 ha         1 PF8       0.134000
     38 H28          9.2460     1.5190     0.2010 ha         1 PF8       0.135000
     39 H27          7.7200    -2.4830     0.2920 ha         1 PF8       0.134000
     40 H24          5.2370    -2.8390     0.0600 ha         1 PF8       0.138000
     41 H22          2.9960    -1.8440    -0.2240 ha         1 PF8       0.154000
     42 H12          0.3900     2.1920    -1.1790 ha         1 PF8       0.142500
     43 H11         -3.5790    -1.1010    -1.4130 ha         1 PF8       0.143000
     44 H15         -3.8490    -3.5370    -1.5110 h4         1 PF8       0.017100
     45 H14         -7.0550    -3.4500     1.0530 h4         1 PF8       0.017100
     46 H10         -6.9130    -1.0080     1.2980 ha         1 PF8       0.143000
     47 HN9         -6.2000     3.6080     0.1010 hn         1 PF8       0.325700
@<TRIPOS>BOND
     1     1    18 ar  
     2     1    19 ar  
     3     1    30 1   
     4     2    21 2   
     5     2    22 1   
     6     2    31 1   
     7     3     5 ar  
     8     3     6 ar  
     9     3    32 1   
    10     4     7 1   
    11     4    12 ar  
    12     4    16 ar  
    13     5    19 ar  
    14     5    33 1   
    15     6    17 1   
    16     6    18 ar  
    17     7    17 1   
    18     7    34 1   
    19     7    35 1   
    20     8    10 ar  
    21     8    11 ar  
    22     8    36 1   
    23     9    10 ar  
    24     9    13 ar  
    25     9    37 1   
    26    10    38 1   
    27    11    12 ar  
    28    11    14 ar  
    29    13    14 ar  
    30    13    39 1   
    31    14    15 ar  
    32    15    16 ar  
    33    15    40 1   
    34    16    41 1   
    35    18    42 1   
    36    19    20 1   
    37    20    21 1   
    38    20    23 2   
    39    21    24 1   
    40    22    23 1   
    41    22    47 1   
    42    24    25 ar  
    43    24    29 ar  
    44    25    26 ar  
    45    25    43 1   
    46    26    27 ar  
    47    26    44 1   
    48    27    28 ar  
    49    28    29 ar  
    50    28    45 1   
    51    29    46 1   
@<TRIPOS>SUBSTRUCTURE
     1 PF8         1 TEMP              0 ****  ****    0 ROOT
