@<TRIPOS>MOLECULE
PF8
   47    51     1     0     0
SMALL
No Charge or Current Charge


@<TRIPOS>ATOM
      1 C7          -1.7490     1.8080    -0.8560 ca         1 PF8      -0.048500
      2 C6          -6.2760     1.4970     0.2980 cc         1 PF8      -0.152000
      3 C13         -0.7410    -0.0690     0.9690 ca         1 PF8      -0.177500
      4 C20          3.8070     0.1200    -0.5530 ca         1 PF8       0.361300
      5 C8          -2.1080     0.2570     0.9810 ca         1 PF8      -0.048500
      6 C16          0.1270     0.5340     0.0470 ca         1 PF8       0.151100
      7 C19          2.4320     0.7310    -0.8250 c3         1 PF8       0.107300
      8 C26          7.0970     1.3390     0.3660 ca         1 PF8      -0.081000
      9 C29          8.6440    -0.5330     0.5370 ca         1 PF8      -0.105000
     10 C28          8.3890     0.8450     0.6240 ca         1 PF8      -0.103000
     11 C23          6.0450     0.4700     0.0200 ca         1 PF8       0.273000
     12 N21          4.8110     0.9730    -0.2230 nb         1 PF8      -0.666000
     13 C27          7.6090    -1.4160     0.1930 ca         1 PF8      -0.092000
     14 C25          6.3160    -0.9210    -0.0640 ca         1 PF8      -0.079000
     15 C24          5.2780    -1.8030    -0.4100 ca         1 PF8      -0.066000
     16 C22          4.0050    -1.2690    -0.6580 ca         1 PF8      -0.139000
     17 O18          1.4570     0.1720     0.0830 os         1 PF8      -0.346100
     18 C12         -0.3810     1.4810    -0.8670 ca         1 PF8      -0.177500
     19 C3          -2.6260     1.1800     0.0510 ca         1 PF8      -0.163500
     20 C1          -4.0510     1.5500     0.0910 cd         1 PF8       0.335500
     21 C2          -5.1870     0.6850     0.1080 cd         1 PF8      -0.162000
     22 N9          -5.7570     2.7870     0.2890 na         1 PF8       0.005800
     23 N4          -4.3820     2.8270     0.1620 nc         1 PF8      -0.517800
     24 C5          -5.2430    -0.7920     0.0430 ca         1 PF8       0.049000
     25 C11         -4.2040    -1.5690    -0.5070 ca         1 PF8      -0.161500
     26 C15         -4.3270    -2.9670    -0.5520 ca         1 PF8       0.332400
     27 N17         -5.4140    -3.6270    -0.0960 nb         1 PF8      -0.667000
     28 C14         -6.4230    -2.8880     0.4150 ca         1 PF8       0.332400
     29 C10         -6.3820    -1.4870     0.4950 ca         1 PF8      -0.161500
     30 H7          -2.1310     2.5440    -1.5610 ha         1 PF8       0.123000
     31 H6          -7.3350     1.2870     0.3980 h4         1 PF8       0.158000
     32 H13         -0.3510    -0.7900     1.6830 ha         1 PF8       0.124500
     33 H8          -2.7660    -0.2090     1.7130 ha         1 PF8       0.123000
     34 H19          2.4860     1.8210    -0.7060 h1         1 PF8       0.057700
     35 H19A         2.1560     0.5160    -1.8650 h1         1 PF8       0.057700
     36 H26          6.9070     2.4060     0.4350 ha         1 PF8       0.131000
     37 H29          9.6430    -0.9150     0.7360 ha         1 PF8       0.116000
     38 H28          9.1900     1.5310     0.8900 ha         1 PF8       0.117000
     39 H27          7.8120    -2.4830     0.1270 ha         1 PF8       0.116000
     40 H24          5.4510    -2.8750    -0.4840 ha         1 PF8       0.120000
     41 H22          3.1760    -1.9190    -0.9270 ha         1 PF8       0.136000
     42 H12          0.2650     1.9750    -1.5870 ha         1 PF8       0.124500
     43 H11         -3.3190    -1.1140    -0.9350 ha         1 PF8       0.125000
     44 H15         -3.5320    -3.5780    -0.9780 h4         1 PF8       0.017100
     45 H14         -7.2930    -3.4380     0.7730 h4         1 PF8       0.017100
     46 H10         -7.2290    -0.9620     0.9230 ha         1 PF8       0.125000
     47 HN9         -6.3010     3.6460     0.3760 hn         1 PF8       0.376000
@<TRIPOS>BOND
     1     1    18 ar  
     2     1    19 ar  
     3     1    30 1   
     4     2    21 2   
     5     2    22 1   
     6     2    31 1   
     7     3     5 ar  
     8     3     6 ar  
     9     3    32 1   
    10     4     7 1   
    11     4    12 ar  
    12     4    16 ar  
    13     5    19 ar  
    14     5    33 1   
    15     6    17 1   
    16     6    18 ar  
    17     7    17 1   
    18     7    34 1   
    19     7    35 1   
    20     8    10 ar  
    21     8    11 ar  
    22     8    36 1   
    23     9    10 ar  
    24     9    13 ar  
    25     9    37 1   
    26    10    38 1   
    27    11    12 ar  
    28    11    14 ar  
    29    13    14 ar  
    30    13    39 1   
    31    14    15 ar  
    32    15    16 ar  
    33    15    40 1   
    34    16    41 1   
    35    18    42 1   
    36    19    20 1   
    37    20    21 1   
    38    20    23 2   
    39    21    24 1   
    40    22    23 1   
    41    22    47 1   
    42    24    25 ar  
    43    24    29 ar  
    44    25    26 ar  
    45    25    43 1   
    46    26    27 ar  
    47    26    44 1   
    48    27    28 ar  
    49    28    29 ar  
    50    28    45 1   
    51    29    46 1   
@<TRIPOS>SUBSTRUCTURE
     1 PF8         1 TEMP              0 ****  ****    0 ROOT
