@<TRIPOS>MOLECULE
PF9
   50    54     1     0     0
SMALL
abcg2


@<TRIPOS>ATOM
      1 C4           1.5240     1.7300     0.4440 ca         1 PF9      -0.049000
      2 C7           0.5740    -0.3700    -1.0830 ca         1 PF9      -0.177000
      3 C6           5.9060    -2.0200    -0.3370 ca         1 PF9      -0.162000
      4 C9           3.9720    -3.2160     1.1200 ca         1 PF9       0.332900
      5 C20         -6.4780    -0.7710    -0.2630 ca         1 PF9      -0.081000
      6 C21         -7.2870     1.3410     0.6500 ca         1 PF9      -0.082000
      7 C8           0.1550     1.5070     0.3640 ca         1 PF9      -0.177000
      8 C18         -6.2070     0.5210     0.2500 ca         1 PF9       0.275000
      9 C19         -5.3720    -1.5580    -0.6480 ca         1 PF9      -0.066000
     10 C26          4.9390     0.2420     0.0230 cc         1 PF9      -0.163000
     11 N28          5.6640     2.3020    -0.1080 na         1 PF9       0.141800
     12 C27          6.0710     1.0340     0.0190 cd         1 PF9      -0.151000
     13 C2           4.9120    -1.2060     0.2080 ca         1 PF9       0.051000
     14 C10          5.8660    -3.3860    -0.1110 ca         1 PF9       0.332900
     15 N12          4.9190    -3.9890     0.5990 nb         1 PF9      -0.668000
     16 C5           3.9250    -1.8410     0.9620 ca         1 PF9      -0.162000
     17 N29          4.3440     2.4030    -0.2040 nd         1 PF9      -0.519800
     18 C25          3.8760     1.1680    -0.1270 cc         1 PF9       0.335500
     19 C1           2.4330     0.9150    -0.2200 ca         1 PF9      -0.160500
     20 C11         -0.3260     0.4460    -0.3970 ca         1 PF9       0.151100
     21 C3           1.9320    -0.1330    -0.9960 ca         1 PF9      -0.049000
     22 O13         -1.6310     0.1360    -0.5330 os         1 PF9      -0.350100
     23 C14         -2.5840     0.8540     0.2150 c3         1 PF9       0.108300
     24 C15         -3.9430     0.2440     0.0020 ca         1 PF9       0.364300
     25 C17         -4.1070    -1.0620    -0.5160 ca         1 PF9      -0.138000
     26 C22         -7.8150    -1.2130    -0.3680 ca         1 PF9      -0.091000
     27 C24         -8.8430    -0.4000     0.0270 ca         1 PF9      -0.106000
     28 C23         -8.5740     0.8870     0.5400 ca         1 PF9      -0.103000
     29 N16         -4.9470     0.9990     0.3650 nb         1 PF9      -0.675000
     30 H4           1.8830     2.5530     1.0490 ha         1 PF9       0.123000
     31 H7           0.2010    -1.1870    -1.6890 ha         1 PF9       0.124500
     32 H6           6.6990    -1.5990    -0.9410 ha         1 PF9       0.125000
     33 H9           3.2070    -3.7150     1.7040 h4         1 PF9       0.017100
     34 H21         -7.0720     2.3260     1.0410 ha         1 PF9       0.130000
     35 H8          -0.5120     2.1660     0.9040 ha         1 PF9       0.124500
     36 H19         -5.5360    -2.5530    -1.0430 ha         1 PF9       0.120000
     37 H30          6.3620     3.9960    -1.1100 h1         1 PF9       0.058367
     38 H30A         6.2200     4.1650     0.6510 h1         1 PF9       0.058367
     39 H30B         7.5270     3.1950    -0.0450 h1         1 PF9       0.058367
     40 H27          7.1120     0.7750     0.1300 h4         1 PF9       0.157000
     41 H10          6.6370    -4.0220    -0.5320 h4         1 PF9       0.017100
     42 H5           3.1330    -1.2760     1.4340 ha         1 PF9       0.125000
     43 H3           2.6090    -0.7710    -1.5490 ha         1 PF9       0.123000
     44 H14         -2.3440     0.8210     1.2850 h1         1 PF9       0.059200
     45 H14A        -2.6140     1.9080    -0.0800 h1         1 PF9       0.059200
     46 H17         -3.2510    -1.6550    -0.8010 ha         1 PF9       0.140000
     47 H22         -8.0150    -2.2020    -0.7620 ha         1 PF9       0.116000
     48 H24         -9.8660    -0.7410    -0.0530 ha         1 PF9       0.116000
     49 H23         -9.3970     1.5180     0.8490 ha         1 PF9       0.116000
     50 C30          6.4870     3.4860    -0.1560 c3         1 PF9       0.072900
@<TRIPOS>BOND
     1     1     7 ar  
     2     1    19 ar  
     3     1    30 1   
     4     2    20 ar  
     5     2    21 ar  
     6     2    31 1   
     7     3    13 ar  
     8     3    14 ar  
     9     3    32 1   
    10     4    15 ar  
    11     4    16 ar  
    12     4    33 1   
    13     5     8 ar  
    14     5     9 ar  
    15     5    26 ar  
    16     6     8 ar  
    17     6    28 ar  
    18     6    34 1   
    19     7    20 ar  
    20     7    35 1   
    21     8    29 ar  
    22     9    25 ar  
    23     9    36 1   
    24    10    12 2   
    25    10    13 1   
    26    10    18 1   
    27    11    12 1   
    28    11    17 1   
    29    11    50 1   
    30    12    40 1   
    31    13    16 ar  
    32    14    15 ar  
    33    14    41 1   
    34    16    42 1   
    35    17    18 2   
    36    18    19 1   
    37    19    21 ar  
    38    20    22 1   
    39    21    43 1   
    40    22    23 1   
    41    23    24 1   
    42    23    44 1   
    43    23    45 1   
    44    24    25 ar  
    45    24    29 ar  
    46    25    46 1   
    47    26    27 ar  
    48    26    47 1   
    49    27    28 ar  
    50    27    48 1   
    51    28    49 1   
    52    37    50 1   
    53    38    50 1   
    54    39    50 1   
@<TRIPOS>SUBSTRUCTURE
     1 PF9         1 TEMP              0 ****  ****    0 ROOT
