@<TRIPOS>MOLECULE
PF9
   50    54     1     0     0
SMALL
No Charge or Current Charge


@<TRIPOS>ATOM
      1 C4           1.5370     1.6910     0.8610 ca         1 PF9      -0.049000
      2 C7           0.5120    -0.4490    -0.6260 ca         1 PF9      -0.177000
      3 C6           6.0510    -1.8120    -1.0250 ca         1 PF9      -0.162000
      4 C9           4.3200    -3.4150     0.3720 ca         1 PF9       0.332900
      5 C20         -6.6300    -0.7310     0.1100 ca         1 PF9      -0.081000
      6 C21         -7.2570     1.4480    -0.7620 ca         1 PF9      -0.082000
      7 C8           0.1530     1.4420     0.8500 ca         1 PF9      -0.177000
      8 C18         -6.2740     0.6060    -0.2070 ca         1 PF9       0.275000
      9 C19         -5.6620    -1.5860     0.6650 ca         1 PF9      -0.066000
     10 C26          4.9340     0.2810    -0.2150 cc         1 PF9      -0.163000
     11 N28          5.6570     2.3210     0.0740 na         1 PF9       0.141800
     12 C27          6.0750     1.0280    -0.2360 cd         1 PF9      -0.151000
     13 C2           5.0350    -1.1840    -0.2790 ca         1 PF9       0.051000
     14 C10          6.1340    -3.2130    -1.0460 ca         1 PF9       0.332900
     15 N12          5.2840    -4.0120    -0.3630 nb         1 PF9      -0.668000
     16 C5           4.1660    -2.0210     0.4450 ca         1 PF9      -0.162000
     17 N29          4.2950     2.4020     0.3100 nd         1 PF9      -0.519800
     18 C25          3.8760     1.1590     0.1420 cc         1 PF9       0.335500
     19 C1           2.4340     0.8500     0.1620 ca         1 PF9      -0.160500
     20 C11         -0.3640     0.3600     0.1090 ca         1 PF9       0.151100
     21 C3           1.8950    -0.2000    -0.6150 ca         1 PF9      -0.049000
     22 O13         -1.7110     0.0670     0.0590 os         1 PF9      -0.350100
     23 C14         -2.6960     0.8390     0.7800 c3         1 PF9       0.108300
     24 C15         -4.0900     0.2570     0.5450 ca         1 PF9       0.364300
     25 C17         -4.3730    -1.0790     0.8850 ca         1 PF9      -0.138000
     26 C22         -7.9360    -1.2010    -0.1270 ca         1 PF9      -0.091000
     27 C24         -8.9010    -0.3450    -0.6820 ca         1 PF9      -0.106000
     28 C23         -8.5620     0.9800    -0.9990 ca         1 PF9      -0.103000
     29 N16         -5.0260     1.0840     0.0110 nb         1 PF9      -0.675000
     30 H4           1.9120     2.5340     1.4370 ha         1 PF9       0.123000
     31 H7           0.1150    -1.2670    -1.2220 ha         1 PF9       0.124500
     32 H6           6.7630    -1.2320    -1.6030 ha         1 PF9       0.125000
     33 H9           3.6550    -4.0750     0.9290 h4         1 PF9       0.017100
     34 H21         -7.0020     2.4750    -1.0100 ha         1 PF9       0.130000
     35 H8          -0.4980     2.1000     1.4170 ha         1 PF9       0.124500
     36 H19         -5.9020    -2.6160     0.9200 ha         1 PF9       0.120000
     37 H30          6.0920     4.3210    -0.4250 h1         1 PF9       0.058367
     38 H30A         6.5600     3.8300     1.2320 h1         1 PF9       0.058367
     39 H30B         7.5210     3.2770    -0.1720 h1         1 PF9       0.058367
     40 H27          7.1150     0.7620    -0.3870 h4         1 PF9       0.157000
     41 H10          6.9070    -3.7140    -1.6280 h4         1 PF9       0.017100
     42 H5           3.3920    -1.6090     1.0850 ha         1 PF9       0.125000
     43 H3           2.5380    -0.8140    -1.2390 ha         1 PF9       0.123000
     44 H14         -2.4880     0.8160     1.8570 h1         1 PF9       0.059200
     45 H14A        -2.6760     1.8860     0.4520 h1         1 PF9       0.059200
     46 H17         -3.5980    -1.7090     1.3120 ha         1 PF9       0.140000
     47 H22         -8.2040    -2.2270     0.1170 ha         1 PF9       0.116000
     48 H24         -9.9100    -0.7080    -0.8650 ha         1 PF9       0.116000
     49 H23         -9.3080     1.6450    -1.4290 ha         1 PF9       0.116000
     50 C30          6.5110     3.5110     0.1840 c3         1 PF9       0.072900
@<TRIPOS>BOND
     1     1     7 ar  
     2     1    19 ar  
     3     1    30 1   
     4     2    20 ar  
     5     2    21 ar  
     6     2    31 1   
     7     3    13 ar  
     8     3    14 ar  
     9     3    32 1   
    10     4    15 ar  
    11     4    16 ar  
    12     4    33 1   
    13     5     8 ar  
    14     5     9 ar  
    15     5    26 ar  
    16     6     8 ar  
    17     6    28 ar  
    18     6    34 1   
    19     7    20 ar  
    20     7    35 1   
    21     8    29 ar  
    22     9    25 ar  
    23     9    36 1   
    24    10    12 2   
    25    10    13 1   
    26    10    18 1   
    27    11    12 1   
    28    11    17 1   
    29    11    50 1   
    30    12    40 1   
    31    13    16 ar  
    32    14    15 ar  
    33    14    41 1   
    34    16    42 1   
    35    17    18 2   
    36    18    19 1   
    37    19    21 ar  
    38    20    22 1   
    39    21    43 1   
    40    22    23 1   
    41    23    24 1   
    42    23    44 1   
    43    23    45 1   
    44    24    25 ar  
    45    24    29 ar  
    46    25    46 1   
    47    26    27 ar  
    48    26    47 1   
    49    27    28 ar  
    50    27    48 1   
    51    28    49 1   
    52    37    50 1   
    53    38    50 1   
    54    39    50 1   
@<TRIPOS>SUBSTRUCTURE
     1 PF9         1 TEMP              0 ****  ****    0 ROOT
