@<TRIPOS>MOLECULE
PFA
   48    50     1     0     0
SMALL
No Charge or Current Charge


@<TRIPOS>ATOM
      1 O9          -1.9940    -0.4630    -3.9910 o          1 PFA      -0.521000
      2 C14         -0.9590    -0.1540    -4.5590 c          1 PFA       0.607000
      3 N6          -0.9370     0.0700    -5.9070 ns         1 PFA      -0.469500
      4 C10          0.1460     0.4350    -6.6660 c          1 PFA       0.466700
      5 O8           0.0480     0.6110    -7.8720 o          1 PFA      -0.495000
      6 N5           0.2970     0.0160    -3.9030 n          1 PFA      -0.089000
      7 N3           1.4720     0.3820    -4.5550 nc         1 PFA      -0.369300
      8 C17          1.4040     0.5850    -5.8730 cd         1 PFA       0.268200
      9 C4           0.4410    -0.2140    -2.4910 ca         1 PFA       0.061600
     10 C5           1.0470     0.7620    -1.6750 ca         1 PFA      -0.088500
     11 C6           1.2030     0.5500    -0.2920 ca         1 PFA      -0.069300
     12 C7           1.8620     1.6240     0.5680 c3         1 PFA      -0.045800
     13 C3           0.0010    -1.4200    -1.9120 ca         1 PFA      -0.088500
     14 C2           0.1470    -1.6500    -0.5300 ca         1 PFA      -0.069300
     15 C19         -0.3440    -2.9570     0.0820 c3         1 PFA      -0.045800
     16 C1           0.7430    -0.6580     0.2770 ca         1 PFA       0.103100
     17 O20          0.8810    -0.8810     1.6300 os         1 PFA      -0.256200
     18 C21          0.0500    -0.3020     2.5650 ca         1 PFA       0.096100
     19 C31         -1.1670     0.3070     2.2020 ca         1 PFA      -0.139000
     20 C22          0.4390    -0.3360     3.9140 ca         1 PFA      -0.103000
     21 C24         -0.3690     0.2410     4.9200 ca         1 PFA      -0.070300
     22 C25          0.0980     0.1850     6.3850 c3         1 PFA      -0.011400
     23 C8           0.2100    -1.2720     6.8870 c3         1 PFA      -0.084600
     24 C9           1.4220     0.9570     6.5840 c3         1 PFA      -0.084600
     25 C26         -1.5900     0.8550     4.5410 ca         1 PFA       0.112100
     26 C29         -1.9810     0.8840     3.1910 ca         1 PFA      -0.174000
     27 O27         -2.4130     1.4300     5.4690 oh         1 PFA      -0.536100
     28 HN6         -1.8150    -0.0440    -6.3920 hn         1 PFA       0.347500
     29 H17C         2.3050     0.8710    -6.3990 h4         1 PFA       0.072800
     30 HC5          1.3920     1.6920    -2.1210 ha         1 PFA       0.129000
     31 HC71         2.6100     1.1900     1.2420 hc         1 PFA       0.051367
     32 HC72         2.3720     2.3780    -0.0430 hc         1 PFA       0.051367
     33 HC73         1.1180     2.1440     1.1830 hc         1 PFA       0.051367
     34 HC3         -0.4520    -2.1840    -2.5390 ha         1 PFA       0.129000
     35 H191         0.4740    -3.4870     0.5840 hc         1 PFA       0.051367
     36 H192        -1.1280    -2.7710     0.8250 hc         1 PFA       0.051367
     37 H193        -0.7600    -3.6340    -0.6740 hc         1 PFA       0.051367
     38 H31C        -1.4890     0.3350     1.1640 ha         1 PFA       0.130000
     39 H22C         1.3790    -0.8140     4.1740 ha         1 PFA       0.131000
     40 H25C        -0.6380     0.6740     7.0330 hc         1 PFA       0.068700
     41 HC81         0.4640    -1.2950     7.9540 hc         1 PFA       0.034533
     42 HC82        -0.7440    -1.7970     6.7550 hc         1 PFA       0.034533
     43 HC83         0.9840    -1.8250     6.3420 hc         1 PFA       0.034533
     44 HC91         2.2440     0.4920     6.0270 hc         1 PFA       0.034533
     45 HC92         1.3170     1.9930     6.2400 hc         1 PFA       0.034533
     46 HC93         1.7000     0.9790     7.6450 hc         1 PFA       0.034533
     47 H29C        -2.9180     1.3520     2.9000 ha         1 PFA       0.114000
     48 H27O        -3.1970     1.7940     5.0070 ho         1 PFA       0.462000
@<TRIPOS>BOND
     1     1     2 2   
     2     2     3 1   
     3     2     6 1   
     4     3     4 1   
     5     3    28 1   
     6     4     5 2   
     7     4     8 1   
     8     6     7 1   
     9     6     9 1   
    10     7     8 2   
    11     8    29 1   
    12     9    10 ar  
    13     9    13 ar  
    14    10    11 ar  
    15    10    30 1   
    16    11    12 1   
    17    11    16 ar  
    18    12    31 1   
    19    12    32 1   
    20    12    33 1   
    21    13    14 ar  
    22    13    34 1   
    23    14    15 1   
    24    14    16 ar  
    25    15    35 1   
    26    15    36 1   
    27    15    37 1   
    28    16    17 1   
    29    17    18 1   
    30    18    19 ar  
    31    18    20 ar  
    32    19    26 ar  
    33    19    38 1   
    34    20    21 ar  
    35    20    39 1   
    36    21    22 1   
    37    21    25 ar  
    38    22    23 1   
    39    22    24 1   
    40    22    40 1   
    41    23    41 1   
    42    23    42 1   
    43    23    43 1   
    44    24    44 1   
    45    24    45 1   
    46    24    46 1   
    47    25    26 ar  
    48    25    27 1   
    49    26    47 1   
    50    27    48 1   
@<TRIPOS>SUBSTRUCTURE
     1 PFA         1 TEMP              0 ****  ****    0 ROOT
