@<TRIPOS>MOLECULE
PFA
   48    50     1     0     0
SMALL
abcg2


@<TRIPOS>ATOM
      1 O9          -1.9400     0.2430    -3.7400 o          1 PFA      -0.521000
      2 C14         -0.9210     0.2100    -4.3890 c          1 PFA       0.607000
      3 N6          -0.8880     0.4140    -5.7460 ns         1 PFA      -0.469500
      4 C10          0.2360     0.4160    -6.5370 c          1 PFA       0.466700
      5 O8           0.2000     0.6050    -7.7320 o          1 PFA      -0.495000
      6 N5           0.3190    -0.0360    -3.8310 n          1 PFA      -0.089000
      7 N3           1.4660    -0.0370    -4.5120 nc         1 PFA      -0.369300
      8 C17          1.4580     0.1700    -5.7710 cd         1 PFA       0.268200
      9 C4           0.4280    -0.2470    -2.4240 ca         1 PFA       0.061600
     10 C5           1.0280     0.7240    -1.6430 ca         1 PFA      -0.088500
     11 C6           1.1760     0.5310    -0.2740 ca         1 PFA      -0.069300
     12 C7           1.8310     1.5690     0.5860 c3         1 PFA      -0.045800
     13 C3          -0.0350    -1.4270    -1.8690 ca         1 PFA      -0.088500
     14 C2           0.0880    -1.6490    -0.5020 ca         1 PFA      -0.069300
     15 C19         -0.4080    -2.9170     0.1250 c3         1 PFA      -0.045800
     16 C1           0.6990    -0.6620     0.2680 ca         1 PFA       0.103100
     17 O20          0.8800    -0.9050     1.6030 os         1 PFA      -0.256200
     18 C21          0.0120    -0.3430     2.5020 ca         1 PFA       0.096100
     19 C31         -1.2040     0.2190     2.1490 ca         1 PFA      -0.139000
     20 C22          0.3990    -0.3690     3.8350 ca         1 PFA      -0.103000
     21 C24         -0.4010     0.1580     4.8400 ca         1 PFA      -0.070300
     22 C25          0.0780     0.1420     6.2760 c3         1 PFA      -0.011400
     23 C8           0.5210    -1.2500     6.7230 c3         1 PFA      -0.084600
     24 C9           1.2010     1.1630     6.4720 c3         1 PFA      -0.084600
     25 C26         -1.6230     0.7370     4.4760 ca         1 PFA       0.112100
     26 C29         -2.0120     0.7570     3.1430 ca         1 PFA      -0.174000
     27 O27         -2.3960     1.2700     5.4530 oh         1 PFA      -0.536100
     28 HN6         -1.7810     0.5940    -6.1910 hn         1 PFA       0.347500
     29 H17C         2.4090     0.1590    -6.2850 h4         1 PFA       0.072800
     30 HC5          1.3890     1.6370    -2.0990 ha         1 PFA       0.129000
     31 HC71         2.5630     1.1300     1.2630 hc         1 PFA       0.051367
     32 HC72         2.3370     2.3130    -0.0260 hc         1 PFA       0.051367
     33 HC73         1.0990     2.0950     1.2020 hc         1 PFA       0.051367
     34 HC3         -0.4920    -2.1830    -2.4960 ha         1 PFA       0.129000
     35 H191         0.3990    -3.4710     0.6050 hc         1 PFA       0.051367
     36 H192        -1.1630    -2.7210     0.8880 hc         1 PFA       0.051367
     37 H193        -0.8590    -3.5650    -0.6250 hc         1 PFA       0.051367
     38 H31C        -1.5390     0.2520     1.1200 ha         1 PFA       0.130000
     39 H22C         1.3560    -0.8110     4.0900 ha         1 PFA       0.131000
     40 H25C        -0.7530     0.4380     6.9190 hc         1 PFA       0.068700
     41 HC81         0.8020    -1.2360     7.7770 hc         1 PFA       0.034533
     42 HC82        -0.2790    -1.9820     6.5990 hc         1 PFA       0.034533
     43 HC83         1.3870    -1.6020     6.1610 hc         1 PFA       0.034533
     44 HC91         2.0810     0.8970     5.8830 hc         1 PFA       0.034533
     45 HC92         0.8880     2.1630     6.1710 hc         1 PFA       0.034533
     46 HC93         1.5050     1.2070     7.5190 hc         1 PFA       0.034533
     47 H29C        -2.9620     1.1980     2.8620 ha         1 PFA       0.114000
     48 H27O        -3.2050     1.6300     5.0750 ho         1 PFA       0.462000
@<TRIPOS>BOND
     1     1     2 2   
     2     2     3 1   
     3     2     6 1   
     4     3     4 1   
     5     3    28 1   
     6     4     5 2   
     7     4     8 1   
     8     6     7 1   
     9     6     9 1   
    10     7     8 2   
    11     8    29 1   
    12     9    10 ar  
    13     9    13 ar  
    14    10    11 ar  
    15    10    30 1   
    16    11    12 1   
    17    11    16 ar  
    18    12    31 1   
    19    12    32 1   
    20    12    33 1   
    21    13    14 ar  
    22    13    34 1   
    23    14    15 1   
    24    14    16 ar  
    25    15    35 1   
    26    15    36 1   
    27    15    37 1   
    28    16    17 1   
    29    17    18 1   
    30    18    19 ar  
    31    18    20 ar  
    32    19    26 ar  
    33    19    38 1   
    34    20    21 ar  
    35    20    39 1   
    36    21    22 1   
    37    21    25 ar  
    38    22    23 1   
    39    22    24 1   
    40    22    40 1   
    41    23    41 1   
    42    23    42 1   
    43    23    43 1   
    44    24    44 1   
    45    24    45 1   
    46    24    46 1   
    47    25    26 ar  
    48    25    27 1   
    49    26    47 1   
    50    27    48 1   
@<TRIPOS>SUBSTRUCTURE
     1 PFA         1 TEMP              0 ****  ****    0 ROOT
