@<TRIPOS>MOLECULE
PFB
   16    16     1     0     0
SMALL
bcc


@<TRIPOS>ATOM
      1 C1           0.0130     0.2670     1.1340 ca         1 PFB      -0.141300
      2 C2          -1.1690     0.1810     0.4160 ca         1 PFB       0.156400
      3 C3          -1.1860     0.0320    -0.9570 ca         1 PFB       0.057400
      4 C4           0.0090    -0.0570    -1.6460 ca         1 PFB       0.115900
      5 C5           1.2060     0.0100    -0.9590 ca         1 PFB       0.057400
      6 C6           1.1930     0.1600     0.4150 ca         1 PFB       0.156400
      7 C7           0.0110     0.3830     2.6320 c3         1 PFB       0.195700
      8 F2          -2.3370     0.2560     1.0500 f          1 PFB      -0.106900
      9 F3          -2.3370    -0.0370    -1.6190 f          1 PFB      -0.098900
     10 F4           0.0060    -0.2040    -2.9630 f          1 PFB      -0.094900
     11 F5           2.3550    -0.0800    -1.6200 f          1 PFB      -0.098900
     12 F6           2.3640     0.2120     1.0460 f          1 PFB      -0.106900
     13 O1          -0.0470    -0.9220     3.1600 oh         1 PFB      -0.585800
     14 H71         -0.8420     0.9920     2.9470 h1         1 PFB       0.041200
     15 H72          0.9090     0.9170     2.9570 h1         1 PFB       0.041200
     16 HO1         -0.0780    -0.8490     4.1200 ho         1 PFB       0.413000
@<TRIPOS>BOND
     1     1     2 ar  
     2     1     6 ar  
     3     1     7 1   
     4     2     3 ar  
     5     2     8 1   
     6     3     4 ar  
     7     3     9 1   
     8     4     5 ar  
     9     4    10 1   
    10     5     6 ar  
    11     5    11 1   
    12     6    12 1   
    13     7    13 1   
    14     7    14 1   
    15     7    15 1   
    16    13    16 1   
@<TRIPOS>SUBSTRUCTURE
     1 PFB         1 TEMP              0 ****  ****    0 ROOT
