@<TRIPOS>MOLECULE
PFB
   16    16     1     0     0
SMALL
No Charge or Current Charge


@<TRIPOS>ATOM
      1 C1           0.0050     0.2280     1.1270 ca         1 PFB      -0.141300
      2 C2          -1.2090     0.1760     0.4080 ca         1 PFB       0.191500
      3 C3          -1.2070     0.0410    -0.9930 ca         1 PFB       0.092500
      4 C4           0.0110    -0.0450    -1.6890 ca         1 PFB       0.151000
      5 C5           1.2260     0.0040    -0.9850 ca         1 PFB       0.092500
      6 C6           1.2220     0.1400     0.4170 ca         1 PFB       0.191500
      7 C7           0.0020     0.3690     2.6440 c3         1 PFB       0.218900
      8 F2          -2.3910     0.2570     1.0650 f          1 PFB      -0.142000
      9 F3          -2.3790    -0.0070    -1.6720 f          1 PFB      -0.134000
     10 F4           0.0130    -0.1760    -3.0370 f          1 PFB      -0.130000
     11 F5           2.4000    -0.0790    -1.6550 f          1 PFB      -0.134000
     12 F6           2.4010     0.1850     1.0820 f          1 PFB      -0.142000
     13 O1          -0.0200    -0.9270     3.2510 oh         1 PFB      -0.648000
     14 H71         -0.8720     0.9540     2.9600 h1         1 PFB       0.041200
     15 H72          0.8910     0.9280     2.9660 h1         1 PFB       0.041200
     16 HO1         -0.0210    -0.7860     4.2240 ho         1 PFB       0.452000
@<TRIPOS>BOND
     1     1     2 ar  
     2     1     6 ar  
     3     1     7 1   
     4     2     3 ar  
     5     2     8 1   
     6     3     4 ar  
     7     3     9 1   
     8     4     5 ar  
     9     4    10 1   
    10     5     6 ar  
    11     5    11 1   
    12     6    12 1   
    13     7    13 1   
    14     7    14 1   
    15     7    15 1   
    16    13    16 1   
@<TRIPOS>SUBSTRUCTURE
     1 PFB         1 TEMP              0 ****  ****    0 ROOT
