@<TRIPOS>MOLECULE
PFD
   48    50     1     0     0
SMALL
abcg2


@<TRIPOS>ATOM
      1 F29          2.6060     0.7700    -7.9100 f          1 PFD      -0.176000
      2 C28          1.7810     0.4380    -6.9040 ca         1 PFD       0.162000
      3 C26          1.3690     1.4210    -6.0240 ca         1 PFD      -0.137000
      4 C24          0.5150     1.0780    -4.9870 ca         1 PFD      -0.102500
      5 C27          1.3680    -0.8740    -6.7800 ca         1 PFD      -0.137000
      6 C25          0.5220    -1.2140    -5.7330 ca         1 PFD      -0.102500
      7 C23          0.0960    -0.2390    -4.8450 ca         1 PFD       0.088100
      8 O22         -0.7850    -0.5970    -3.8580 os         1 PFD      -0.249200
      9 C20         -0.4500    -0.3580    -2.5550 ca         1 PFD       0.099100
     10 C16          0.8630    -0.3610    -2.0960 ca         1 PFD      -0.111500
     11 C12          1.1210    -0.1600    -0.7520 ca         1 PFD      -0.127500
     12 C17         -1.4880    -0.1530    -1.6620 ca         1 PFD      -0.111500
     13 C13         -1.2280     0.0430    -0.3120 ca         1 PFD      -0.127500
     14 C6           0.0820     0.0420     0.1490 ca         1 PFD       0.115100
     15 O2           0.4660     0.2290     1.4440 os         1 PFD      -0.302100
     16 C1          -0.4710     0.3800     2.4550 c6         1 PFD       0.033000
     17 C5           0.3110     0.5570     3.7780 c3         1 PFD      -0.069400
     18 C11          1.2930    -0.5630     4.0890 c3         1 PFD       0.164600
     19 O15          1.9150    -0.2220     5.3020 os         1 PFD      -0.468000
     20 C19          2.8880    -1.1620     5.7040 c3         1 PFD       0.163600
     21 C21          3.4730    -0.7320     7.0300 c3         1 PFD      -0.093100
     22 C4          -1.2620     1.6780     2.2800 c          1 PFD       0.553000
     23 O10         -0.7910     2.6420     1.7370 o          1 PFD      -0.467500
     24 N9          -2.4970     1.6880     2.8680 ns         1 PFD      -0.483000
     25 C14         -3.1940     0.5970     3.3430 c          1 PFD       0.636000
     26 O18         -4.2760     0.7010     3.8580 o          1 PFD      -0.518000
     27 N7          -2.5850    -0.6250     3.1510 ns         1 PFD      -0.483000
     28 C3          -1.3590    -0.8560     2.5880 c          1 PFD       0.553000
     29 O8          -0.9800    -1.9580     2.2890 o          1 PFD      -0.467500
     30 H26          1.7020     2.4430    -6.1460 ha         1 PFD       0.136000
     31 H24          0.1790     1.8410    -4.2960 ha         1 PFD       0.133500
     32 H27          1.7040    -1.6250    -7.4820 ha         1 PFD       0.136000
     33 H25          0.1920    -2.2380    -5.6140 ha         1 PFD       0.133500
     34 H16          1.6920    -0.5250    -2.7720 ha         1 PFD       0.131500
     35 H12          2.1440    -0.1640    -0.3970 ha         1 PFD       0.122500
     36 H17         -2.5120    -0.1470    -2.0120 ha         1 PFD       0.131500
     37 H13         -2.0850     0.1970     0.3300 ha         1 PFD       0.122500
     38 H51         -0.4010     0.6570     4.6010 hc         1 PFD       0.078700
     39 H52          0.8580     1.5010     3.7120 hc         1 PFD       0.078700
     40 H111         2.0330    -0.6600     3.2850 h1         1 PFD       0.039700
     41 H112         0.7830    -1.5300     4.1790 h1         1 PFD       0.039700
     42 H191         3.6800    -1.2380     4.9470 h1         1 PFD       0.022700
     43 H192         2.4400    -2.1610     5.7940 h1         1 PFD       0.022700
     44 H211         4.2380    -1.4430     7.3430 hc         1 PFD       0.044367
     45 H212         3.9420     0.2500     6.9570 hc         1 PFD       0.044367
     46 H213         2.7120    -0.6940     7.8090 hc         1 PFD       0.044367
     47 HN9         -2.9850     2.5750     2.9150 hn         1 PFD       0.353000
     48 HN7         -3.1470    -1.4360     3.3860 hn         1 PFD       0.353000
@<TRIPOS>BOND
     1     1     2 1   
     2     2     3 ar  
     3     2     5 ar  
     4     3     4 ar  
     5     3    30 1   
     6     4     7 ar  
     7     4    31 1   
     8     5     6 ar  
     9     5    32 1   
    10     6     7 ar  
    11     6    33 1   
    12     7     8 1   
    13     8     9 1   
    14     9    10 ar  
    15     9    12 ar  
    16    10    11 ar  
    17    10    34 1   
    18    11    14 ar  
    19    11    35 1   
    20    12    13 ar  
    21    12    36 1   
    22    13    14 ar  
    23    13    37 1   
    24    14    15 1   
    25    15    16 1   
    26    16    17 1   
    27    16    22 1   
    28    16    28 1   
    29    17    18 1   
    30    17    38 1   
    31    17    39 1   
    32    18    19 1   
    33    18    40 1   
    34    18    41 1   
    35    19    20 1   
    36    20    21 1   
    37    20    42 1   
    38    20    43 1   
    39    21    44 1   
    40    21    45 1   
    41    21    46 1   
    42    22    23 2   
    43    22    24 1   
    44    24    25 1   
    45    24    47 1   
    46    25    26 2   
    47    25    27 1   
    48    27    28 1   
    49    27    48 1   
    50    28    29 2   
@<TRIPOS>SUBSTRUCTURE
     1 PFD         1 TEMP              0 ****  ****    0 ROOT
