@<TRIPOS>MOLECULE
PFD
   48    50     1     0     0
SMALL
No Charge or Current Charge


@<TRIPOS>ATOM
      1 F29          2.4770     1.1140    -8.1200 f          1 PFD      -0.176000
      2 C28          1.7270     0.6490    -7.0980 ca         1 PFD       0.162000
      3 C26          1.4970     1.4620    -5.9750 ca         1 PFD      -0.137000
      4 C24          0.7150     0.9790    -4.9090 ca         1 PFD      -0.102500
      5 C27          1.1760    -0.6400    -7.1660 ca         1 PFD      -0.137000
      6 C25          0.3930    -1.1240    -6.1010 ca         1 PFD      -0.102500
      7 C23          0.1700    -0.3210    -4.9690 ca         1 PFD       0.088100
      8 O22         -0.6100    -0.8120    -3.9460 os         1 PFD      -0.249200
      9 C20         -0.3460    -0.5650    -2.6180 ca         1 PFD       0.099100
     10 C16          0.9730    -0.5480    -2.1280 ca         1 PFD      -0.111500
     11 C12          1.2110    -0.3050    -0.7630 ca         1 PFD      -0.127500
     12 C17         -1.4200    -0.3600    -1.7370 ca         1 PFD      -0.111500
     13 C13         -1.1840    -0.1170    -0.3720 ca         1 PFD      -0.127500
     14 C6           0.1430    -0.0860     0.1230 ca         1 PFD       0.115100
     15 O2           0.4650     0.1460     1.4510 os         1 PFD      -0.302100
     16 C1          -0.5330     0.3770     2.4930 c6         1 PFD       0.033000
     17 C5           0.3330     0.5930     3.7840 c3         1 PFD      -0.069400
     18 C11          1.2650    -0.5760     4.1720 c3         1 PFD       0.164600
     19 O15          1.9600    -0.1900     5.3690 os         1 PFD      -0.468000
     20 C19          2.8800    -1.1740     5.8650 c3         1 PFD       0.163600
     21 C21          3.5300    -0.6040     7.1350 c3         1 PFD      -0.093100
     22 C4          -1.3450     1.6780     2.2970 c          1 PFD       0.553000
     23 O10         -0.9880     2.5990     1.5800 o          1 PFD      -0.467500
     24 N9          -2.5570     1.7120     2.9270 ns         1 PFD      -0.483000
     25 C14         -3.2490     0.6800     3.4770 c          1 PFD       0.636000
     26 O18         -4.3310     0.8270     4.0080 o          1 PFD      -0.518000
     27 N7          -2.6590    -0.5360     3.3390 ns         1 PFD      -0.483000
     28 C3          -1.4620    -0.8320     2.7520 c          1 PFD       0.553000
     29 O8          -1.2040    -1.9740     2.4040 o          1 PFD      -0.467500
     30 H26          1.9220     2.4620    -5.9340 ha         1 PFD       0.136000
     31 H24          0.5290     1.6140    -4.0460 ha         1 PFD       0.133500
     32 H27          1.3540    -1.2610    -8.0410 ha         1 PFD       0.136000
     33 H25         -0.0380    -2.1220    -6.1500 ha         1 PFD       0.133500
     34 H16          1.8110    -0.7270    -2.7980 ha         1 PFD       0.131500
     35 H12          2.2310    -0.2900    -0.3880 ha         1 PFD       0.122500
     36 H17         -2.4390    -0.3850    -2.1160 ha         1 PFD       0.131500
     37 H13         -2.0410     0.0430     0.2730 ha         1 PFD       0.122500
     38 H51         -0.3200     0.8030     4.6410 hc         1 PFD       0.078700
     39 H52          0.9550     1.4890     3.6570 hc         1 PFD       0.078700
     40 H111         1.9750    -0.7750     3.3590 h1         1 PFD       0.039700
     41 H112         0.6760    -1.4860     4.3490 h1         1 PFD       0.039700
     42 H191         3.6580    -1.3920     5.1210 h1         1 PFD       0.022700
     43 H192         2.3580    -2.1090     6.1090 h1         1 PFD       0.022700
     44 H211         4.2440    -1.3240     7.5520 hc         1 PFD       0.044367
     45 H212         4.0690     0.3240     6.9100 hc         1 PFD       0.044367
     46 H213         2.7700    -0.3920     7.8970 hc         1 PFD       0.044367
     47 HN9         -3.0450     2.5950     2.9000 hn         1 PFD       0.353000
     48 HN7         -3.2240    -1.3250     3.6170 hn         1 PFD       0.353000
@<TRIPOS>BOND
     1     1     2 1   
     2     2     3 ar  
     3     2     5 ar  
     4     3     4 ar  
     5     3    30 1   
     6     4     7 ar  
     7     4    31 1   
     8     5     6 ar  
     9     5    32 1   
    10     6     7 ar  
    11     6    33 1   
    12     7     8 1   
    13     8     9 1   
    14     9    10 ar  
    15     9    12 ar  
    16    10    11 ar  
    17    10    34 1   
    18    11    14 ar  
    19    11    35 1   
    20    12    13 ar  
    21    12    36 1   
    22    13    14 ar  
    23    13    37 1   
    24    14    15 1   
    25    15    16 1   
    26    16    17 1   
    27    16    22 1   
    28    16    28 1   
    29    17    18 1   
    30    17    38 1   
    31    17    39 1   
    32    18    19 1   
    33    18    40 1   
    34    18    41 1   
    35    19    20 1   
    36    20    21 1   
    37    20    42 1   
    38    20    43 1   
    39    21    44 1   
    40    21    45 1   
    41    21    46 1   
    42    22    23 2   
    43    22    24 1   
    44    24    25 1   
    45    24    47 1   
    46    25    26 2   
    47    25    27 1   
    48    27    28 1   
    49    27    48 1   
    50    28    29 2   
@<TRIPOS>SUBSTRUCTURE
     1 PFD         1 TEMP              0 ****  ****    0 ROOT
