@<TRIPOS>MOLECULE
PFE
   52    55     1     0     0
SMALL
No Charge or Current Charge


@<TRIPOS>ATOM
      1 O51          3.4490     0.0690    -6.4860 oh         1 PFE      -0.664000
      2 C47          2.6150     1.1260    -5.9570 c3         1 PFE       0.126300
      3 C48          1.1630     0.7130    -5.7840 cc         1 PFE       0.415700
      4 S45          0.1040     0.6280    -7.1670 ss         1 PFE       0.032600
      5 C43         -1.1650     0.1480    -6.0790 cc         1 PFE      -0.279000
      6 N44          0.6170     0.4170    -4.6090 nd         1 PFE      -0.636000
      7 C40         -0.7220     0.0870    -4.7750 cd         1 PFE       0.345500
      8 C36         -1.5570    -0.2880    -3.6080 ca         1 PFE      -0.092500
      9 C35         -1.0050    -0.3180    -2.3040 ca         1 PFE      -0.095000
     10 C33         -2.9230    -0.6190    -3.7630 ca         1 PFE      -0.125000
     11 C37         -3.7090    -0.9590    -2.6510 ca         1 PFE      -0.087000
     12 C34         -3.1410    -0.9820    -1.3680 ca         1 PFE      -0.168000
     13 C32         -1.7850    -0.6760    -1.1870 ca         1 PFE       0.302000
     14 N3          -1.2700    -0.7000     0.1150 nu         1 PFE      -0.931900
     15 C4           0.0030    -0.8870     0.6600 ca         1 PFE       0.404900
     16 N2           0.9410    -1.3990    -0.1560 nb         1 PFE      -0.267000
     17 C7           2.1550    -1.6150     0.3800 ca         1 PFE       0.164900
     18 C6           0.2790    -0.6090     2.0230 ca         1 PFE      -0.169000
     19 C9          -0.6870    -0.0760     2.9100 ca         1 PFE      -0.163000
     20 C13         -0.3520     0.1830     4.2590 ca         1 PFE       0.121100
     21 O15         -1.2730     0.7050     5.1540 os         1 PFE      -0.325100
     22 C20         -2.6250     1.0180     4.7820 c3         1 PFE       0.161600
     23 C21         -3.3340     1.5680     6.0290 c3         1 PFE      -0.093100
     24 C8           1.5900    -0.8780     2.4870 ca         1 PFE       0.065000
     25 N5           2.5230    -1.3820     1.6540 nb         1 PFE      -0.207000
     26 C18          1.9160    -0.6190     3.8290 ca         1 PFE      -0.190000
     27 C16          0.9560    -0.0910     4.7200 ca         1 PFE       0.162100
     28 O17          1.2590     0.1720     6.0460 os         1 PFE      -0.325100
     29 C19          2.5600    -0.0730     6.6060 c3         1 PFE       0.159600
     30 C26          2.5110     0.3370     8.0870 c3         1 PFE      -0.094100
     31 H51          4.3680     0.4170    -6.5330 ho         1 PFE       0.456000
     32 H471         2.6430     1.9990    -6.6230 h1         1 PFE       0.051700
     33 H472         2.9980     1.4560    -4.9820 h1         1 PFE       0.051700
     34 H431        -2.1480    -0.0550    -6.4770 h4         1 PFE       0.159000
     35 H351         0.0330    -0.0450    -2.1540 ha         1 PFE       0.174000
     36 H331        -3.3910    -0.6090    -4.7440 ha         1 PFE       0.113000
     37 H371        -4.7600    -1.2050    -2.7850 ha         1 PFE       0.112000
     38 H341        -3.7600    -1.2480    -0.5150 ha         1 PFE       0.106000
     39 H31         -1.9900    -0.6490     0.8300 hn         1 PFE       0.493000
     40 H71          2.9160    -2.0250    -0.2820 h5         1 PFE       0.046100
     41 H91         -1.6870     0.1420     2.5510 ha         1 PFE       0.110000
     42 H201        -2.6450     1.7750     3.9870 h1         1 PFE       0.031200
     43 H202        -3.1510     0.1210     4.4300 h1         1 PFE       0.031200
     44 H211        -4.3740     1.8230     5.7940 hc         1 PFE       0.049033
     45 H212        -3.3360     0.8220     6.8330 hc         1 PFE       0.049033
     46 H213        -2.8320     2.4730     6.3910 hc         1 PFE       0.049033
     47 H181         2.9270    -0.8340     4.1620 ha         1 PFE       0.142000
     48 H191         3.3250     0.5200     6.0890 h1         1 PFE       0.038700
     49 H192         2.8240    -1.1360     6.5310 h1         1 PFE       0.038700
     50 H261         3.4860     0.1680     8.5590 hc         1 PFE       0.048700
     51 H262         2.2610     1.4000     8.1850 hc         1 PFE       0.048700
     52 H263         1.7600    -0.2520     8.6260 hc         1 PFE       0.048700
@<TRIPOS>BOND
     1     1     2 1   
     2     1    31 1   
     3     2     3 1   
     4     2    32 1   
     5     2    33 1   
     6     3     4 1   
     7     3     6 2   
     8     4     5 1   
     9     5     7 2   
    10     5    34 1   
    11     6     7 1   
    12     7     8 1   
    13     8     9 ar  
    14     8    10 ar  
    15     9    13 ar  
    16     9    35 1   
    17    10    11 ar  
    18    10    36 1   
    19    11    12 ar  
    20    11    37 1   
    21    12    13 ar  
    22    12    38 1   
    23    13    14 1   
    24    14    15 1   
    25    14    39 1   
    26    15    16 ar  
    27    15    18 ar  
    28    16    17 ar  
    29    17    25 ar  
    30    17    40 1   
    31    18    19 ar  
    32    18    24 ar  
    33    19    20 ar  
    34    19    41 1   
    35    20    21 1   
    36    20    27 ar  
    37    21    22 1   
    38    22    23 1   
    39    22    42 1   
    40    22    43 1   
    41    23    44 1   
    42    23    45 1   
    43    23    46 1   
    44    24    25 ar  
    45    24    26 ar  
    46    26    27 ar  
    47    26    47 1   
    48    27    28 1   
    49    28    29 1   
    50    29    30 1   
    51    29    48 1   
    52    29    49 1   
    53    30    50 1   
    54    30    51 1   
    55    30    52 1   
@<TRIPOS>SUBSTRUCTURE
     1 PFE         1 TEMP              0 ****  ****    0 ROOT
