@<TRIPOS>MOLECULE
PFE
   52    55     1     0     0
SMALL
bcc


@<TRIPOS>ATOM
      1 O51          3.0770    -0.3870    -7.3020 oh         1 PFE      -0.601800
      2 C47          2.7730     0.0460    -6.0030 c3         1 PFE       0.103100
      3 C48          1.3060    -0.1330    -5.7960 cc         1 PFE       0.415700
      4 S45          0.2720    -0.4230    -7.1460 ss         1 PFE      -0.112300
      5 C43         -1.0650    -0.4410    -6.0790 cc         1 PFE      -0.217400
      6 N44          0.7010    -0.0620    -4.6610 nd         1 PFE      -0.636000
      7 C40         -0.6530    -0.2290    -4.7950 cd         1 PFE       0.410800
      8 C36         -1.5120    -0.1820    -3.6020 ca         1 PFE      -0.092500
      9 C35         -0.9150    -0.1450    -2.3410 ca         1 PFE      -0.113000
     10 C33         -2.9010    -0.1760    -3.7150 ca         1 PFE      -0.143000
     11 C37         -3.6790    -0.1380    -2.5690 ca         1 PFE      -0.105000
     12 C34         -3.0920    -0.1040    -1.3170 ca         1 PFE      -0.186000
     13 C32         -1.7000    -0.1080    -1.1900 ca         1 PFE       0.163600
     14 N3          -1.2070    -0.0610     0.1160 nu         1 PFE      -0.738300
     15 C4           0.0570    -0.1420     0.5990 ca         1 PFE       0.733200
     16 N2           1.0680    -0.2940    -0.2320 nb         1 PFE      -0.793000
     17 C7           2.2980    -0.3830     0.2880 ca         1 PFE       0.690900
     18 C6           0.2760    -0.0680     2.0140 ca         1 PFE      -0.299600
     19 C9          -0.7370     0.1080     2.9840 ca         1 PFE      -0.181000
     20 C13         -0.4300     0.1620     4.3180 ca         1 PFE       0.121100
     21 O15         -1.3100     0.3250     5.3130 os         1 PFE      -0.301900
     22 C20         -2.6850     0.4860     4.9870 c3         1 PFE       0.138400
     23 C21         -3.4520     0.6820     6.2730 c3         1 PFE      -0.093100
     24 C8           1.6140    -0.1790     2.4270 ca         1 PFE       0.458600
     25 N5           2.6340    -0.3390     1.5440 nb         1 PFE      -0.733000
     26 C18          1.9220    -0.1250     3.8040 ca         1 PFE      -0.273300
     27 C16          0.9330     0.0390     4.7380 ca         1 PFE       0.162100
     28 O17          1.1170     0.0990     6.0570 os         1 PFE      -0.301900
     29 C19          2.4420    -0.0130     6.5690 c3         1 PFE       0.136400
     30 C26          2.3720     0.0700     8.0740 c3         1 PFE      -0.094100
     31 H51          3.9050     0.0160    -7.5770 ho         1 PFE       0.417000
     32 H471         3.0190     1.1040    -5.8510 h1         1 PFE       0.051700
     33 H472         3.3080    -0.5200    -5.2320 h1         1 PFE       0.051700
     34 H431        -2.0630    -0.6220    -6.4450 h4         1 PFE       0.177000
     35 H351         0.1590    -0.1510    -2.2630 ha         1 PFE       0.192000
     36 H331        -3.3810    -0.1920    -4.6840 ha         1 PFE       0.131000
     37 H371        -4.7570    -0.1300    -2.6500 ha         1 PFE       0.130000
     38 H341        -3.7180    -0.0750    -0.4320 ha         1 PFE       0.124000
     39 H31         -1.9350     0.0180     0.8060 hn         1 PFE       0.437800
     40 H71          3.0980    -0.5080    -0.4350 h5         1 PFE       0.046100
     41 H91         -1.7720     0.2010     2.6850 ha         1 PFE       0.128000
     42 H201        -2.8130     1.3510     4.3280 h1         1 PFE       0.031200
     43 H202        -3.0490    -0.3960     4.4510 h1         1 PFE       0.031200
     44 H211        -4.5100     0.8050     6.0440 hc         1 PFE       0.049033
     45 H212        -3.3490    -0.1790     6.9340 hc         1 PFE       0.049033
     46 H213        -3.1180     1.5730     6.8040 hc         1 PFE       0.049033
     47 H181         2.9620    -0.2180     4.0850 ha         1 PFE       0.160000
     48 H191         3.0650     0.7910     6.1650 h1         1 PFE       0.038700
     49 H192         2.8830    -0.9650     6.2540 h1         1 PFE       0.038700
     50 H261         3.3770    -0.0210     8.4840 hc         1 PFE       0.048700
     51 H262         1.9600     1.0250     8.4020 hc         1 PFE       0.048700
     52 H263         1.7660    -0.7340     8.4900 hc         1 PFE       0.048700
@<TRIPOS>BOND
     1     1     2 1   
     2     1    31 1   
     3     2     3 1   
     4     2    32 1   
     5     2    33 1   
     6     3     4 1   
     7     3     6 2   
     8     4     5 1   
     9     5     7 2   
    10     5    34 1   
    11     6     7 1   
    12     7     8 1   
    13     8     9 ar  
    14     8    10 ar  
    15     9    13 ar  
    16     9    35 1   
    17    10    11 ar  
    18    10    36 1   
    19    11    12 ar  
    20    11    37 1   
    21    12    13 ar  
    22    12    38 1   
    23    13    14 1   
    24    14    15 1   
    25    14    39 1   
    26    15    16 ar  
    27    15    18 ar  
    28    16    17 ar  
    29    17    25 ar  
    30    17    40 1   
    31    18    19 ar  
    32    18    24 ar  
    33    19    20 ar  
    34    19    41 1   
    35    20    21 1   
    36    20    27 ar  
    37    21    22 1   
    38    22    23 1   
    39    22    42 1   
    40    22    43 1   
    41    23    44 1   
    42    23    45 1   
    43    23    46 1   
    44    24    25 ar  
    45    24    26 ar  
    46    26    27 ar  
    47    26    47 1   
    48    27    28 1   
    49    28    29 1   
    50    29    30 1   
    51    29    48 1   
    52    29    49 1   
    53    30    50 1   
    54    30    51 1   
    55    30    52 1   
@<TRIPOS>SUBSTRUCTURE
     1 PFE         1 TEMP              0 ****  ****    0 ROOT
