@<TRIPOS>MOLECULE
PFI
   53    55     1     0     0
SMALL
No Charge or Current Charge


@<TRIPOS>ATOM
      1 F26          4.2080    -1.6370    -1.8730 f          1 PFI      -0.171000
      2 C23          3.5290    -1.2170    -0.7800 ca         1 PFI       0.134000
      3 C22          4.2050    -0.5510     0.2650 ca         1 PFI       0.115100
      4 O24          5.5720    -0.3510     0.1480 os         1 PFI      -0.338100
      5 C25          6.3330     0.5010     1.0250 c3         1 PFI       0.179300
      6 C2           7.8180     0.1770     0.7740 c3         1 PFI      -0.108100
      7 C1           5.9960     1.9730     0.6970 c3         1 PFI      -0.108100
      8 C21          3.4690    -0.1300     1.3980 ca         1 PFI      -0.177000
      9 C20          2.0840    -0.3650     1.4680 ca         1 PFI      -0.082000
     10 C19          1.4150    -1.0240     0.4200 ca         1 PFI      -0.097300
     11 C18          2.1450    -1.4490    -0.7060 ca         1 PFI      -0.122000
     12 C12         -0.0860    -1.2660     0.4970 c3         1 PFI      -0.023100
     13 C11         -0.8850    -0.1080    -0.1570 c3         1 PFI      -0.067400
     14 C5          -2.4540    -0.1660    -0.0610 c6         1 PFI       0.227000
     15 C6          -3.0180    -1.3840    -0.8500 c6         1 PFI      -0.085200
     16 C17         -3.1330     1.1680    -0.5650 c5         1 PFI      -0.092700
     17 C13         -2.7920     2.4710     0.2130 c5         1 PFI      -0.072900
     18 C16         -2.7820     1.6520    -2.0030 c5         1 PFI      -0.072900
     19 C15         -3.5070     3.0290    -2.0790 c5         1 PFI      -0.080900
     20 C14         -3.5860     3.5300    -0.6000 c5         1 PFI      -0.080900
     21 O4          -2.7480    -0.3240     1.3470 os         1 PFI      -0.453100
     22 C3          -3.9920    -0.6790     1.8090 c          1 PFI       0.688300
     23 O10         -4.3300    -0.5220     2.9700 o          1 PFI      -0.508000
     24 C8          -4.8600    -1.3540     0.8120 ce         1 PFI      -0.459200
     25 C7          -4.4300    -1.6740    -0.4130 c2         1 PFI       0.165900
     26 O9          -5.1850    -2.2950    -1.3240 oh         1 PFI      -0.519100
     27 H25          6.1140     0.2880     2.0790 h1         1 PFI       0.041700
     28 H21A         8.4590     0.7970     1.4120 hc         1 PFI       0.048200
     29 H22          8.0250    -0.8740     1.0050 hc         1 PFI       0.048200
     30 H23          8.0880     0.3640    -0.2720 hc         1 PFI       0.048200
     31 H11          4.9440     2.1980     0.9060 hc         1 PFI       0.048200
     32 H12          6.6100     2.6490     1.3040 hc         1 PFI       0.048200
     33 H13          6.1910     2.1900    -0.3600 hc         1 PFI       0.048200
     34 H21          3.9500     0.3740     2.2300 ha         1 PFI       0.121000
     35 H20          1.5290    -0.0310     2.3430 ha         1 PFI       0.119000
     36 H18          1.6440    -1.9580    -1.5250 ha         1 PFI       0.127000
     37 H121        -0.3250    -2.2170     0.0080 hc         1 PFI       0.057200
     38 H122        -0.3890    -1.3780     1.5460 hc         1 PFI       0.057200
     39 H111        -0.5260     0.8190     0.3000 hc         1 PFI       0.058200
     40 H112        -0.5870    -0.0550    -1.2110 hc         1 PFI       0.058200
     41 H61         -2.9720    -1.2060    -1.9320 hc         1 PFI       0.083700
     42 H62         -2.4240    -2.2850    -0.6650 hc         1 PFI       0.083700
     43 H17         -4.2130     0.9880    -0.5010 hc         1 PFI       0.056700
     44 H131        -3.1120     2.4350     1.2600 hc         1 PFI       0.048700
     45 H132        -1.7210     2.7020     0.2080 hc         1 PFI       0.048700
     46 H161        -1.7030     1.7760    -2.1450 hc         1 PFI       0.048700
     47 H162        -3.1340     0.9670    -2.7830 hc         1 PFI       0.048700
     48 H151        -4.5120     2.9230    -2.5050 hc         1 PFI       0.043450
     49 H152        -2.9630     3.7310    -2.7220 hc         1 PFI       0.043450
     50 H141        -4.6290     3.5780    -0.2650 hc         1 PFI       0.043450
     51 H142        -3.1670     4.5350    -0.4800 hc         1 PFI       0.043450
     52 H8          -5.8640    -1.5900     1.1550 ha         1 PFI       0.210000
     53 HO9         -6.0690    -2.4350    -0.9230 ho         1 PFI       0.479000
@<TRIPOS>BOND
     1     1     2 1   
     2     2     3 ar  
     3     2    11 ar  
     4     3     4 1   
     5     3     8 ar  
     6     4     5 1   
     7     5     6 1   
     8     5     7 1   
     9     5    27 1   
    10     6    28 1   
    11     6    29 1   
    12     6    30 1   
    13     7    31 1   
    14     7    32 1   
    15     7    33 1   
    16     8     9 ar  
    17     8    34 1   
    18     9    10 ar  
    19     9    35 1   
    20    10    11 ar  
    21    10    12 1   
    22    11    36 1   
    23    12    13 1   
    24    12    37 1   
    25    12    38 1   
    26    13    14 1   
    27    13    39 1   
    28    13    40 1   
    29    14    15 1   
    30    14    16 1   
    31    14    21 1   
    32    15    25 1   
    33    15    41 1   
    34    15    42 1   
    35    16    17 1   
    36    16    18 1   
    37    16    43 1   
    38    17    20 1   
    39    17    44 1   
    40    17    45 1   
    41    18    19 1   
    42    18    46 1   
    43    18    47 1   
    44    19    20 1   
    45    19    48 1   
    46    19    49 1   
    47    20    50 1   
    48    20    51 1   
    49    21    22 1   
    50    22    23 2   
    51    22    24 1   
    52    24    25 2   
    53    24    52 1   
    54    25    26 1   
    55    26    53 1   
@<TRIPOS>SUBSTRUCTURE
     1 PFI         1 TEMP              0 ****  ****    0 ROOT
