@<TRIPOS>MOLECULE
PFI
   53    55     1     0     0
SMALL
abcg2


@<TRIPOS>ATOM
      1 F26          3.9550    -1.5490    -1.7950 f          1 PFI      -0.171000
      2 C23          3.3330    -1.1250    -0.6820 ca         1 PFI       0.134000
      3 C22          4.1040    -0.4850     0.2930 ca         1 PFI       0.115100
      4 O24          5.4160    -0.3670     0.0310 os         1 PFI      -0.338100
      5 C25          6.2430     0.4560     0.8610 c3         1 PFI       0.179300
      6 C2           7.6730     0.0770     0.5310 c3         1 PFI      -0.108100
      7 C1           5.9710     1.9300     0.6080 c3         1 PFI      -0.108100
      8 C21          3.4440    -0.0580     1.4390 ca         1 PFI      -0.177000
      9 C20          2.0760    -0.2650     1.5870 ca         1 PFI      -0.082000
     10 C19          1.3240    -0.9020     0.6110 ca         1 PFI      -0.097300
     11 C18          1.9830    -1.3360    -0.5400 ca         1 PFI      -0.122000
     12 C12         -0.1620    -1.0800     0.7550 c3         1 PFI      -0.023100
     13 C11         -0.9150    -0.0010    -0.0290 c3         1 PFI      -0.067400
     14 C5          -2.4410    -0.1230    -0.0250 c6         1 PFI       0.227000
     15 C6          -2.8750    -1.3400    -0.8430 c6         1 PFI      -0.085200
     16 C17         -3.1330     1.1490    -0.5490 c5         1 PFI      -0.092700
     17 C13         -2.9580     2.4170     0.2890 c5         1 PFI      -0.072900
     18 C16         -2.7120     1.6030    -1.9520 c5         1 PFI      -0.072900
     19 C15         -3.1850     3.0670    -2.0540 c5         1 PFI      -0.080900
     20 C14         -3.5420     3.5010    -0.6170 c5         1 PFI      -0.080900
     21 O4          -2.8160    -0.2930     1.3570 os         1 PFI      -0.453100
     22 C3          -4.0070    -0.7950     1.7060 c          1 PFI       0.688300
     23 O10         -4.3540    -0.6750     2.8610 o          1 PFI      -0.508000
     24 C8          -4.7910    -1.4800     0.6980 ce         1 PFI      -0.459200
     25 C7          -4.2640    -1.7550    -0.5080 c2         1 PFI       0.165900
     26 O9          -4.8750    -2.4320    -1.4700 oh         1 PFI      -0.519100
     27 H25          6.0560     0.2190     1.9140 h1         1 PFI       0.041700
     28 H21A         8.3600     0.6490     1.1540 hc         1 PFI       0.048200
     29 H22          7.8560    -0.9810     0.7180 hc         1 PFI       0.048200
     30 H23          7.9070     0.2920    -0.5130 hc         1 PFI       0.048200
     31 H11          4.9390     2.2070     0.8230 hc         1 PFI       0.048200
     32 H12          6.6100     2.5370     1.2490 hc         1 PFI       0.048200
     33 H13          6.1870     2.1890    -0.4300 hc         1 PFI       0.048200
     34 H21          3.9810     0.4390     2.2350 ha         1 PFI       0.121000
     35 H20          1.5930     0.0860     2.4910 ha         1 PFI       0.119000
     36 H18          1.4430    -1.8390    -1.3340 ha         1 PFI       0.127000
     37 H121        -0.4440    -2.0770     0.4070 hc         1 PFI       0.057200
     38 H122        -0.4300    -1.0310     1.8110 hc         1 PFI       0.057200
     39 H111        -0.6200     0.9760     0.3610 hc         1 PFI       0.058200
     40 H112        -0.5840    -0.0230    -1.0690 hc         1 PFI       0.058200
     41 H61         -2.7940    -1.1090    -1.9060 hc         1 PFI       0.083700
     42 H62         -2.2160    -2.1970    -0.6680 hc         1 PFI       0.083700
     43 H17         -4.2110     0.9450    -0.5850 hc         1 PFI       0.056700
     44 H131        -3.4570     2.3680     1.2570 hc         1 PFI       0.048700
     45 H132        -1.8990     2.6180     0.4770 hc         1 PFI       0.048700
     46 H161        -1.6260     1.5550    -2.0590 hc         1 PFI       0.048700
     47 H162        -3.1360     0.9790    -2.7410 hc         1 PFI       0.048700
     48 H151        -4.0490     3.1580    -2.7120 hc         1 PFI       0.043450
     49 H152        -2.4020     3.6960    -2.4780 hc         1 PFI       0.043450
     50 H141        -4.6260     3.5350    -0.4920 hc         1 PFI       0.043450
     51 H142        -3.1640     4.4950    -0.3720 hc         1 PFI       0.043450
     52 H8          -5.7850    -1.8060     0.9800 ha         1 PFI       0.210000
     53 HO9         -5.7510    -2.7270    -1.1850 ho         1 PFI       0.479000
@<TRIPOS>BOND
     1     1     2 1   
     2     2     3 ar  
     3     2    11 ar  
     4     3     4 1   
     5     3     8 ar  
     6     4     5 1   
     7     5     6 1   
     8     5     7 1   
     9     5    27 1   
    10     6    28 1   
    11     6    29 1   
    12     6    30 1   
    13     7    31 1   
    14     7    32 1   
    15     7    33 1   
    16     8     9 ar  
    17     8    34 1   
    18     9    10 ar  
    19     9    35 1   
    20    10    11 ar  
    21    10    12 1   
    22    11    36 1   
    23    12    13 1   
    24    12    37 1   
    25    12    38 1   
    26    13    14 1   
    27    13    39 1   
    28    13    40 1   
    29    14    15 1   
    30    14    16 1   
    31    14    21 1   
    32    15    25 1   
    33    15    41 1   
    34    15    42 1   
    35    16    17 1   
    36    16    18 1   
    37    16    43 1   
    38    17    20 1   
    39    17    44 1   
    40    17    45 1   
    41    18    19 1   
    42    18    46 1   
    43    18    47 1   
    44    19    20 1   
    45    19    48 1   
    46    19    49 1   
    47    20    50 1   
    48    20    51 1   
    49    21    22 1   
    50    22    23 2   
    51    22    24 1   
    52    24    25 2   
    53    24    52 1   
    54    25    26 1   
    55    26    53 1   
@<TRIPOS>SUBSTRUCTURE
     1 PFI         1 TEMP              0 ****  ****    0 ROOT
