@<TRIPOS>MOLECULE
PFJ
   51    55     1     0     0
SMALL
No Charge or Current Charge


@<TRIPOS>ATOM
      1 C4          14.5070    16.3890    44.3130 ca         1 PFJ      -0.187000
      2 C7          12.3730    19.3140    45.1420 ca         1 PFJ       0.410900
      3 C6          12.7830    18.0970    44.5350 ca         1 PFJ      -0.162000
      4 C9          14.3360    19.3670    46.3250 ca         1 PFJ       0.162900
      5 C21         11.7270    23.3630    43.1270 ca         1 PFJ       0.542300
      6 C18          9.2550    21.3640    45.0070 c5         1 PFJ      -0.097400
      7 C16         10.8870    20.5090    43.4680 c5         1 PFJ       0.203800
      8 C19         10.3580    20.6890    45.8650 c5         1 PFJ       0.229800
      9 C26         13.4270    24.3760    41.2420 ca         1 PFJ       0.187000
     10 C14         10.3510    15.8950    41.7230 c3         1 PFJ       0.144900
     11 C2          12.4320    16.1820    43.0400 ca         1 PFJ       0.102100
     12 C3          11.9720    17.3850    43.6210 ca         1 PFJ      -0.146000
     13 N8          13.1520    19.9390    46.0450 nb         1 PFJ      -0.294000
     14 N10         14.8250    18.2310    45.7910 nb         1 PFJ      -0.214000
     15 C5          14.0530    17.5850    44.8940 ca         1 PFJ       0.064000
     16 C1          13.7090    15.6850    43.3850 ca         1 PFJ       0.157100
     17 O11         14.1400    14.5030    42.8010 os         1 PFJ      -0.325100
     18 C12         15.4220    13.9190    43.0890 c3         1 PFJ       0.143900
     19 N15         11.1590    19.9700    44.8350 nh         1 PFJ      -0.789300
     20 C17         10.0470    21.8030    43.7500 c5         1 PFJ       0.161300
     21 O20         10.9120    22.9150    44.1600 os         1 PFJ      -0.460300
     22 N24         11.3310    23.2580    41.8260 nb         1 PFJ      -0.742000
     23 C25         12.1800    23.7550    40.8860 ca         1 PFJ       0.269000
     24 C30         11.8270    23.6600    39.5270 ca         1 PFJ      -0.094000
     25 C29         12.6730    24.1580    38.5220 ca         1 PFJ      -0.087000
     26 C28         13.8900    24.7630    38.8690 ca         1 PFJ      -0.116000
     27 C27         14.2610    24.8690    40.2200 ca         1 PFJ      -0.056000
     28 N23         13.8170    24.4990    42.5390 nb         1 PFJ      -0.601000
     29 C22         12.9570    23.9950    43.4700 ca         1 PFJ       0.308900
     30 H4          15.4870    16.0190    44.6000 ha         1 PFJ       0.140000
     31 H9          14.9660    19.8760    47.0520 h5         1 PFJ       0.042100
     32 H181         8.7780    22.2030    45.5250 hc         1 PFJ       0.070700
     33 H182         8.4670    20.6500    44.7460 hc         1 PFJ       0.070700
     34 H161        10.2980    19.8020    42.8700 h1         1 PFJ       0.067700
     35 H162        11.8110    20.7210    42.9130 h1         1 PFJ       0.067700
     36 H191         9.9280    20.0090    46.6140 h1         1 PFJ       0.068200
     37 H192        10.9590    21.4450    46.3920 h1         1 PFJ       0.068200
     38 H141         9.6700    15.9560    42.5820 h1         1 PFJ       0.041700
     39 H142        10.3990    16.8790    41.2390 h1         1 PFJ       0.041700
     40 H143         9.9280    15.1830    41.0040 h1         1 PFJ       0.041700
     41 H3          10.9840    17.7600    43.3840 ha         1 PFJ       0.118000
     42 H121        15.5540    12.9920    42.5170 h1         1 PFJ       0.046367
     43 H122        16.2340    14.6050    42.8160 h1         1 PFJ       0.046367
     44 H123        15.5090    13.6740    44.1550 h1         1 PFJ       0.046367
     45 H17          9.3870    22.0960    42.9200 h1         1 PFJ       0.085700
     46 H30         10.8860    23.1930    39.2520 ha         1 PFJ       0.128000
     47 H29         12.3840    24.0750    37.4770 ha         1 PFJ       0.119000
     48 H28         14.5470    25.1500    38.0930 ha         1 PFJ       0.121000
     49 H27         15.2060    25.3400    40.4810 ha         1 PFJ       0.134000
     50 H22         13.2550    24.0920    44.5120 h4         1 PFJ       0.046100
     51 O13         11.6600    15.4650    42.1380 os         1 PFJ      -0.327100
@<TRIPOS>BOND
     1     1    15 ar  
     2     1    16 ar  
     3     1    30 1   
     4     2     3 ar  
     5     2    13 ar  
     6     2    19 1   
     7     3    12 ar  
     8     3    15 ar  
     9     4    13 ar  
    10     4    14 ar  
    11     4    31 1   
    12     5    21 1   
    13     5    22 ar  
    14     5    29 ar  
    15     6     8 1   
    16     6    20 1   
    17     6    32 1   
    18     6    33 1   
    19     7    19 1   
    20     7    20 1   
    21     7    34 1   
    22     7    35 1   
    23     8    19 1   
    24     8    36 1   
    25     8    37 1   
    26     9    23 ar  
    27     9    27 ar  
    28     9    28 ar  
    29    10    38 1   
    30    10    39 1   
    31    10    40 1   
    32    10    51 1   
    33    11    12 ar  
    34    11    16 ar  
    35    11    51 1   
    36    12    41 1   
    37    14    15 ar  
    38    16    17 1   
    39    17    18 1   
    40    18    42 1   
    41    18    43 1   
    42    18    44 1   
    43    20    21 1   
    44    20    45 1   
    45    22    23 ar  
    46    23    24 ar  
    47    24    25 ar  
    48    24    46 1   
    49    25    26 ar  
    50    25    47 1   
    51    26    27 ar  
    52    26    48 1   
    53    27    49 1   
    54    28    29 ar  
    55    29    50 1   
@<TRIPOS>SUBSTRUCTURE
     1 PFJ         1 TEMP              0 ****  ****    0 ROOT
