@<TRIPOS>MOLECULE
PFJ
   51    55     1     0     0
SMALL
abcg2


@<TRIPOS>ATOM
      1 C4          14.3260    16.4650    44.4000 ca         1 PFJ      -0.187000
      2 C7          12.0360    19.1430    45.6180 ca         1 PFJ       0.410900
      3 C6          12.5800    18.1450    44.7300 ca         1 PFJ      -0.162000
      4 C9          13.5430    18.4800    47.2240 ca         1 PFJ       0.162900
      5 C21         11.8610    23.1300    43.0190 ca         1 PFJ       0.542300
      6 C18          9.5410    21.8080    45.4950 c5         1 PFJ      -0.097400
      7 C16         10.6840    20.4260    43.9260 c5         1 PFJ       0.203800
      8 C19         10.5160    20.9440    46.2910 c5         1 PFJ       0.229800
      9 C26         13.2880    23.9630    40.9030 ca         1 PFJ       0.187000
     10 C14         11.0420    17.0610    40.9440 c3         1 PFJ       0.144900
     11 C2          12.6500    16.8220    42.6900 ca         1 PFJ       0.102100
     12 C3          12.0560    17.7870    43.4630 ca         1 PFJ      -0.146000
     13 N8          12.5000    19.2420    46.8710 nb         1 PFJ      -0.294000
     14 N10         14.2020    17.6240    46.4790 nb         1 PFJ      -0.214000
     15 C5          13.7060    17.4350    45.2170 ca         1 PFJ       0.064000
     16 C1          13.8270    16.1590    43.1570 ca         1 PFJ       0.157100
     17 O11         14.3520    15.2450    42.3150 os         1 PFJ      -0.325100
     18 C12         15.5340    14.5540    42.7270 c3         1 PFJ       0.143900
     19 N15         11.0480    20.0060    45.2850 nh         1 PFJ      -0.789300
     20 C17         10.1530    21.8430    44.1060 c5         1 PFJ       0.161300
     21 O20         11.2420    22.7970    44.1610 os         1 PFJ      -0.460300
     22 N24         11.4900    22.6530    41.8680 nb         1 PFJ      -0.742000
     23 C25         12.1980    23.0600    40.7710 ca         1 PFJ       0.269000
     24 C30         11.8540    22.5790    39.4930 ca         1 PFJ      -0.094000
     25 C29         12.5710    22.9830    38.3900 ca         1 PFJ      -0.087000
     26 C28         13.6530    23.8770    38.5210 ca         1 PFJ      -0.116000
     27 C27         14.0070    24.3610    39.7590 ca         1 PFJ      -0.056000
     28 N23         13.6440    24.4450    42.1340 nb         1 PFJ      -0.601000
     29 C22         12.9550    24.0440    43.1610 ca         1 PFJ       0.308900
     30 H4          15.1920    15.9570    44.7970 ha         1 PFJ       0.140000
     31 H9          13.8860    18.6040    48.2480 h5         1 PFJ       0.042100
     32 H181         9.4160    22.8020    45.9180 hc         1 PFJ       0.070700
     33 H182         8.5620    21.3310    45.4300 hc         1 PFJ       0.070700
     34 H161         9.8870    19.8060    43.5080 h1         1 PFJ       0.067700
     35 H162        11.5390    20.3930    43.2570 h1         1 PFJ       0.067700
     36 H191        10.0410    20.4010    47.1070 h1         1 PFJ       0.068200
     37 H192        11.3270    21.5400    46.7130 h1         1 PFJ       0.068200
     38 H141        10.1740    16.8880    41.5840 h1         1 PFJ       0.041700
     39 H142        11.2060    18.1360    40.8340 h1         1 PFJ       0.041700
     40 H143        10.8740    16.6120    39.9690 h1         1 PFJ       0.041700
     41 H3          11.1590    18.2530    43.1000 ha         1 PFJ       0.118000
     42 H121        15.7900    13.8920    41.9040 h1         1 PFJ       0.046367
     43 H122        16.3510    15.2570    42.9060 h1         1 PFJ       0.046367
     44 H123        15.3480    13.9700    43.6300 h1         1 PFJ       0.046367
     45 H17          9.4660    22.1320    43.3160 h1         1 PFJ       0.085700
     46 H30         11.0220    21.8920    39.4050 ha         1 PFJ       0.128000
     47 H29         12.3050    22.6110    37.4090 ha         1 PFJ       0.119000
     48 H28         14.2050    24.1820    37.6420 ha         1 PFJ       0.121000
     49 H27         14.8340    25.0480    39.8830 ha         1 PFJ       0.134000
     50 H22         13.2150    24.4100    44.1480 h4         1 PFJ       0.046100
     51 O13         12.2030    16.4210    41.4730 os         1 PFJ      -0.327100
@<TRIPOS>BOND
     1     1    15 ar  
     2     1    16 ar  
     3     1    30 1   
     4     2     3 ar  
     5     2    13 ar  
     6     2    19 1   
     7     3    12 ar  
     8     3    15 ar  
     9     4    13 ar  
    10     4    14 ar  
    11     4    31 1   
    12     5    21 1   
    13     5    22 ar  
    14     5    29 ar  
    15     6     8 1   
    16     6    20 1   
    17     6    32 1   
    18     6    33 1   
    19     7    19 1   
    20     7    20 1   
    21     7    34 1   
    22     7    35 1   
    23     8    19 1   
    24     8    36 1   
    25     8    37 1   
    26     9    23 ar  
    27     9    27 ar  
    28     9    28 ar  
    29    10    38 1   
    30    10    39 1   
    31    10    40 1   
    32    10    51 1   
    33    11    12 ar  
    34    11    16 ar  
    35    11    51 1   
    36    12    41 1   
    37    14    15 ar  
    38    16    17 1   
    39    17    18 1   
    40    18    42 1   
    41    18    43 1   
    42    18    44 1   
    43    20    21 1   
    44    20    45 1   
    45    22    23 ar  
    46    23    24 ar  
    47    24    25 ar  
    48    24    46 1   
    49    25    26 ar  
    50    25    47 1   
    51    26    27 ar  
    52    26    48 1   
    53    27    49 1   
    54    28    29 ar  
    55    29    50 1   
@<TRIPOS>SUBSTRUCTURE
     1 PFJ         1 TEMP              0 ****  ****    0 ROOT
