@<TRIPOS>MOLECULE
PFK
   42    45     1     0     0
SMALL
abcg2


@<TRIPOS>ATOM
      1 C1          -6.8150     1.4430     0.2860 ca         1 PFK      -0.105000
      2 C2          -5.8550     1.9490     1.1880 ca         1 PFK      -0.101000
      3 C3          -4.6110     1.3850     1.2740 ca         1 PFK      -0.083000
      4 C4          -4.2670     0.2850     0.4550 ca         1 PFK       0.276000
      5 C5          -5.2310    -0.2190    -0.4520 ca         1 PFK      -0.084000
      6 C6          -6.5080     0.3800    -0.5200 ca         1 PFK      -0.091000
      7 N7          -3.0300    -0.2500     0.5670 nb         1 PFK      -0.673000
      8 C8          -2.7010    -1.2660    -0.1910 ca         1 PFK       0.364300
      9 C9          -3.5950    -1.8350    -1.1300 ca         1 PFK      -0.159000
     10 C10         -4.8510    -1.3150    -1.2560 ca         1 PFK      -0.057000
     11 C11         -1.3150    -1.8300    -0.0290 c3         1 PFK      -0.129700
     12 C12         -0.2670    -0.7370    -0.1180 c3         1 PFK       0.162600
     13 O13          1.0060    -1.3480     0.0510 os         1 PFK      -0.328100
     14 C14          2.0910    -0.5770     0.0030 ca         1 PFK       0.163100
     15 C15          2.0890     0.7770    -0.2090 ca         1 PFK      -0.188000
     16 C16          3.3080     1.4890    -0.2380 ca         1 PFK       0.046000
     17 C17          4.5180     0.7940    -0.0470 ca         1 PFK      -0.137000
     18 C18          4.5130    -0.6040     0.1720 ca         1 PFK      -0.166000
     19 C19          3.3300    -1.2850     0.1960 ca         1 PFK       0.127100
     20 O20          3.1910    -2.6000     0.3890 os         1 PFK      -0.316100
     21 C21          4.3630    -3.3690     0.5850 c3         1 PFK       0.142900
     22 N22          3.3010     2.8240    -0.4470 nb         1 PFK      -0.167000
     23 C23          4.4580     3.4290    -0.4620 ca         1 PFK       0.114900
     24 N24          5.6670     2.8670    -0.2910 nb         1 PFK      -0.182000
     25 C25          5.6860     1.5710    -0.0880 ca         1 PFK       0.128900
     26 H1          -7.7930     1.9010     0.2340 ha         1 PFK       0.116000
     27 H2          -6.1090     2.7920     1.8180 ha         1 PFK       0.118000
     28 H3          -3.8700     1.7690     1.9650 ha         1 PFK       0.132000
     29 H6          -7.2390    -0.0140    -1.2160 ha         1 PFK       0.116000
     30 H9          -3.2750    -2.6730    -1.7350 ha         1 PFK       0.125000
     31 H10         -5.5550    -1.7330    -1.9650 ha         1 PFK       0.121000
     32 H11         -1.2430    -2.3280     0.9420 hc         1 PFK       0.069700
     33 H11A        -1.1330    -2.5860    -0.7950 hc         1 PFK       0.069700
     34 H12         -0.3170    -0.2360    -1.0910 h1         1 PFK       0.052700
     35 H12A        -0.4310     0.0140     0.6590 h1         1 PFK       0.052700
     36 H15          1.1730     1.3310    -0.3590 ha         1 PFK       0.146000
     37 H18          5.4590    -1.1090     0.3190 ha         1 PFK       0.126000
     38 H21          4.0390    -4.3990     0.7050 h1         1 PFK       0.043700
     39 H21A         5.0360    -3.3040    -0.2730 h1         1 PFK       0.043700
     40 H21B         4.9020    -3.0590     1.4840 h1         1 PFK       0.043700
     41 H23          4.4510     4.5010    -0.6300 h5         1 PFK       0.047100
     42 H25          6.6540     1.1000     0.0530 h4         1 PFK       0.020100
@<TRIPOS>BOND
     1     1     2 ar  
     2     1     6 ar  
     3     1    26 1   
     4     2     3 ar  
     5     2    27 1   
     6     3     4 ar  
     7     3    28 1   
     8     4     5 ar  
     9     4     7 ar  
    10     5     6 ar  
    11     5    10 ar  
    12     6    29 1   
    13     7     8 ar  
    14     8     9 ar  
    15     8    11 1   
    16     9    10 ar  
    17     9    30 1   
    18    10    31 1   
    19    11    12 1   
    20    11    32 1   
    21    11    33 1   
    22    12    13 1   
    23    12    34 1   
    24    12    35 1   
    25    13    14 1   
    26    14    15 ar  
    27    14    19 ar  
    28    15    16 ar  
    29    15    36 1   
    30    16    17 ar  
    31    16    22 ar  
    32    17    18 ar  
    33    17    25 ar  
    34    18    19 ar  
    35    18    37 1   
    36    19    20 1   
    37    20    21 1   
    38    21    38 1   
    39    21    39 1   
    40    21    40 1   
    41    22    23 ar  
    42    23    24 ar  
    43    23    41 1   
    44    24    25 ar  
    45    25    42 1   
@<TRIPOS>SUBSTRUCTURE
     1 PFK         1 TEMP              0 ****  ****    0 ROOT
