@<TRIPOS>MOLECULE
PFK
   42    45     1     0     0
SMALL
No Charge or Current Charge


@<TRIPOS>ATOM
      1 C1          -7.1820     1.2100     0.3480 ca         1 PFK      -0.105000
      2 C2          -6.5500     1.2860     1.5990 ca         1 PFK      -0.101000
      3 C3          -5.2730     0.7240     1.7780 ca         1 PFK      -0.083000
      4 C4          -4.6090     0.0810     0.7160 ca         1 PFK       0.276000
      5 C5          -5.2580     0.0120    -0.5440 ca         1 PFK      -0.084000
      6 C6          -6.5360     0.5740    -0.7250 ca         1 PFK      -0.091000
      7 N7          -3.3790    -0.4510     0.9160 nb         1 PFK      -0.673000
      8 C8          -2.7590    -1.0650    -0.1170 ca         1 PFK       0.364300
      9 C9          -3.3360    -1.1710    -1.3940 ca         1 PFK      -0.159000
     10 C10         -4.6090    -0.6250    -1.6160 ca         1 PFK      -0.057000
     11 C11         -1.3800    -1.6320     0.1660 c3         1 PFK      -0.129700
     12 C12         -0.2760    -0.5950    -0.0970 c3         1 PFK       0.162600
     13 O13          0.9850    -1.2320     0.1670 os         1 PFK      -0.328100
     14 C14          2.1960    -0.5730     0.0260 ca         1 PFK       0.163100
     15 C15          2.2640     0.7780    -0.3870 ca         1 PFK      -0.188000
     16 C16          3.5040     1.4260    -0.5230 ca         1 PFK       0.046000
     17 C17          4.6870     0.7070    -0.2400 ca         1 PFK      -0.137000
     18 C18          4.6360    -0.6370     0.1730 ca         1 PFK      -0.166000
     19 C19          3.3880    -1.2850     0.3080 ca         1 PFK       0.127100
     20 O20          3.2920    -2.6080     0.7120 os         1 PFK      -0.316100
     21 C21          4.4480    -3.4080     1.0190 c3         1 PFK       0.142900
     22 N22          3.5700     2.7160    -0.9180 nb         1 PFK      -0.167000
     23 C23          4.7970     3.2690    -1.0250 ca         1 PFK       0.114900
     24 N24          5.9780     2.6650    -0.7770 nb         1 PFK      -0.182000
     25 C25          5.9180     1.3780    -0.3830 ca         1 PFK       0.128900
     26 H1          -8.1700     1.6450     0.2080 ha         1 PFK       0.116000
     27 H2          -7.0490     1.7790     2.4310 ha         1 PFK       0.118000
     28 H3          -4.7910     0.7860     2.7490 ha         1 PFK       0.132000
     29 H6          -7.0300     0.5190    -1.6930 ha         1 PFK       0.116000
     30 H9          -2.8030    -1.6690    -2.1990 ha         1 PFK       0.125000
     31 H10         -5.0770    -0.6950    -2.5960 ha         1 PFK       0.121000
     32 H11         -1.3140    -1.9720     1.2060 hc         1 PFK       0.069700
     33 H11A        -1.2040    -2.5130    -0.4630 hc         1 PFK       0.069700
     34 H12         -0.3310    -0.2580    -1.1410 h1         1 PFK       0.052700
     35 H12A        -0.4220     0.2710     0.5620 h1         1 PFK       0.052700
     36 H15          1.3630     1.3410    -0.6080 ha         1 PFK       0.146000
     37 H18          5.5670    -1.1570     0.3820 ha         1 PFK       0.126000
     38 H21          4.1410    -4.4190     1.3150 h1         1 PFK       0.043700
     39 H21A         5.1060    -3.4950     0.1450 h1         1 PFK       0.043700
     40 H21B         5.0170    -2.9690     1.8480 h1         1 PFK       0.043700
     41 H23          4.8380     4.3090    -1.3440 h5         1 PFK       0.047100
     42 H25          6.8660     0.8820    -0.1810 h4         1 PFK       0.020100
@<TRIPOS>BOND
     1     1     2 ar  
     2     1     6 ar  
     3     1    26 1   
     4     2     3 ar  
     5     2    27 1   
     6     3     4 ar  
     7     3    28 1   
     8     4     5 ar  
     9     4     7 ar  
    10     5     6 ar  
    11     5    10 ar  
    12     6    29 1   
    13     7     8 ar  
    14     8     9 ar  
    15     8    11 1   
    16     9    10 ar  
    17     9    30 1   
    18    10    31 1   
    19    11    12 1   
    20    11    32 1   
    21    11    33 1   
    22    12    13 1   
    23    12    34 1   
    24    12    35 1   
    25    13    14 1   
    26    14    15 ar  
    27    14    19 ar  
    28    15    16 ar  
    29    15    36 1   
    30    16    17 ar  
    31    16    22 ar  
    32    17    18 ar  
    33    17    25 ar  
    34    18    19 ar  
    35    18    37 1   
    36    19    20 1   
    37    20    21 1   
    38    21    38 1   
    39    21    39 1   
    40    21    40 1   
    41    22    23 ar  
    42    23    24 ar  
    43    23    41 1   
    44    24    25 ar  
    45    25    42 1   
@<TRIPOS>SUBSTRUCTURE
     1 PFK         1 TEMP              0 ****  ****    0 ROOT
