@<TRIPOS>MOLECULE
PFL
   31    31     1     0     0
SMALL
bcc


@<TRIPOS>ATOM
      1 O1          -1.8900    -0.0320     0.1310 oh         1 PFL      -0.504100
      2 C1          -0.5380    -0.0090     0.0400 ca         1 PFL       0.148100
      3 C2           0.1670    -0.0180     1.2530 ca         1 PFL      -0.133800
      4 C6           0.1310     0.0240    -1.1930 ca         1 PFL      -0.133800
      5 C3           1.5560     0.0020     1.2080 ca         1 PFL      -0.091500
      6 C7          -0.5420    -0.0420     2.5920 c3         1 PFL      -0.009400
      7 C4           2.2400     0.0260     0.0020 ca         1 PFL      -0.166000
      8 C5           1.5240     0.0360    -1.1820 ca         1 PFL      -0.091500
      9 C10         -0.5890     0.0290    -2.5280 c3         1 PFL      -0.009400
     10 C8          -0.1670    -1.2860     3.3990 c3         1 PFL      -0.084850
     11 C9          -0.2540     1.2310     3.3890 c3         1 PFL      -0.084850
     12 C11         -0.2100     1.2480    -3.3690 c3         1 PFL      -0.084850
     13 C12         -0.3380    -1.2700    -3.2930 c3         1 PFL      -0.084850
     14 HO1         -2.2930    -0.0510    -0.7430 ho         1 PFL       0.425000
     15 HC3          2.1190    -0.0020     2.1340 ha         1 PFL       0.130000
     16 HC7         -1.6170    -0.0820     2.4230 hc         1 PFL       0.048700
     17 HC4          3.3220     0.0370    -0.0130 ha         1 PFL       0.132000
     18 HC5          2.0620     0.0540    -2.1220 ha         1 PFL       0.130000
     19 H10         -1.6720     0.0980    -2.3830 hc         1 PFL       0.048700
     20 H81         -0.7360    -1.3210     4.3300 hc         1 PFL       0.034533
     21 H82         -0.3800    -2.2000     2.8440 hc         1 PFL       0.034533
     22 H83          0.8930    -1.2930     3.6610 hc         1 PFL       0.034533
     23 H91          0.8090     1.3250     3.6230 hc         1 PFL       0.034533
     24 H92         -0.5530     2.1220     2.8350 hc         1 PFL       0.034533
     25 H93         -0.8010     1.2260     4.3330 hc         1 PFL       0.034533
     26 H111        -0.7960     1.2700    -4.2890 hc         1 PFL       0.034533
     27 H112        -0.3990     2.1770    -2.8300 hc         1 PFL       0.034533
     28 H113         0.8440     1.2310    -3.6510 hc         1 PFL       0.034533
     29 H121         0.7200    -1.3890    -3.5320 hc         1 PFL       0.034533
     30 H122        -0.6500    -2.1390    -2.7130 hc         1 PFL       0.034533
     31 H123        -0.8950    -1.2760    -4.2320 hc         1 PFL       0.034533
@<TRIPOS>BOND
     1     1     2 1   
     2     1    14 1   
     3     2     3 ar  
     4     2     4 ar  
     5     3     5 ar  
     6     3     6 1   
     7     4     8 ar  
     8     4     9 1   
     9     5     7 ar  
    10     5    15 1   
    11     6    10 1   
    12     6    11 1   
    13     6    16 1   
    14     7     8 ar  
    15     7    17 1   
    16     8    18 1   
    17     9    12 1   
    18     9    13 1   
    19     9    19 1   
    20    10    20 1   
    21    10    21 1   
    22    10    22 1   
    23    11    23 1   
    24    11    24 1   
    25    11    25 1   
    26    12    26 1   
    27    12    27 1   
    28    12    28 1   
    29    13    29 1   
    30    13    30 1   
    31    13    31 1   
@<TRIPOS>SUBSTRUCTURE
     1 PFL         1 TEMP              0 ****  ****    0 ROOT
