@<TRIPOS>MOLECULE
PFL
   31    31     1     0     0
SMALL
No Charge or Current Charge


@<TRIPOS>ATOM
      1 O1          -1.9220    -0.0130     0.0680 oh         1 PFL      -0.543100
      2 C1          -0.5540    -0.0100     0.0440 ca         1 PFL       0.148100
      3 C2           0.1670    -0.0100     1.2680 ca         1 PFL      -0.133800
      4 C6           0.1330    -0.0080    -1.2010 ca         1 PFL      -0.133800
      5 C3           1.5770    -0.0070     1.2300 ca         1 PFL      -0.073500
      6 C7          -0.5380    -0.0130     2.6380 c3         1 PFL      -0.009400
      7 C4           2.2580    -0.0040     0.0070 ca         1 PFL      -0.148000
      8 C5           1.5440    -0.0050    -1.1980 ca         1 PFL      -0.073500
      9 C10         -0.6000    -0.0080    -2.5580 c3         1 PFL      -0.009400
     10 C8          -0.2070    -1.2900     3.4420 c3         1 PFL      -0.084850
     11 C9          -0.2130     1.2650     3.4440 c3         1 PFL      -0.084850
     12 C11         -0.2890     1.2720    -3.3670 c3         1 PFL      -0.084850
     13 C12         -0.2810    -1.2840    -3.3710 c3         1 PFL      -0.084850
     14 HO1         -2.2440    -0.0130    -0.8550 ho         1 PFL       0.464000
     15 HC3          2.1520    -0.0060     2.1520 ha         1 PFL       0.112000
     16 HC7         -1.6260    -0.0150     2.5080 hc         1 PFL       0.048700
     17 HC4          3.3460    -0.0020    -0.0080 ha         1 PFL       0.114000
     18 HC5          2.0960    -0.0030    -2.1350 ha         1 PFL       0.112000
     19 H10         -1.6850    -0.0120    -2.4140 hc         1 PFL       0.048700
     20 H81         -0.7790    -1.3180     4.3760 hc         1 PFL       0.034533
     21 H82         -0.4630    -2.1850     2.8610 hc         1 PFL       0.034533
     22 H83          0.8590    -1.3380     3.6940 hc         1 PFL       0.034533
     23 H91          0.8530     1.3180     3.6960 hc         1 PFL       0.034533
     24 H92         -0.4730     2.1600     2.8640 hc         1 PFL       0.034533
     25 H93         -0.7850     1.2890     4.3780 hc         1 PFL       0.034533
     26 H111        -0.8790     1.2970    -4.2910 hc         1 PFL       0.034533
     27 H112        -0.5370     2.1650    -2.7820 hc         1 PFL       0.034533
     28 H113         0.7720     1.3240    -3.6400 hc         1 PFL       0.034533
     29 H121         0.7800    -1.3290    -3.6450 hc         1 PFL       0.034533
     30 H122        -0.5230    -2.1800    -2.7870 hc         1 PFL       0.034533
     31 H123        -0.8710    -1.3110    -4.2940 hc         1 PFL       0.034533
@<TRIPOS>BOND
     1     1     2 1   
     2     1    14 1   
     3     2     3 ar  
     4     2     4 ar  
     5     3     5 ar  
     6     3     6 1   
     7     4     8 ar  
     8     4     9 1   
     9     5     7 ar  
    10     5    15 1   
    11     6    10 1   
    12     6    11 1   
    13     6    16 1   
    14     7     8 ar  
    15     7    17 1   
    16     8    18 1   
    17     9    12 1   
    18     9    13 1   
    19     9    19 1   
    20    10    20 1   
    21    10    21 1   
    22    10    22 1   
    23    11    23 1   
    24    11    24 1   
    25    11    25 1   
    26    12    26 1   
    27    12    27 1   
    28    12    28 1   
    29    13    29 1   
    30    13    30 1   
    31    13    31 1   
@<TRIPOS>SUBSTRUCTURE
     1 PFL         1 TEMP              0 ****  ****    0 ROOT
