@<TRIPOS>MOLECULE
PFN
   31    32     1     0     0
SMALL
No Charge or Current Charge


@<TRIPOS>ATOM
      1 CAL          3.1350     0.7580     0.4210 ca         1 PFN      -0.160000
      2 CAJ          4.4700     1.1990     0.3720 ca         1 PFN      -0.088000
      3 CAP          5.5000     0.2850     0.0920 ca         1 PFN      -0.158000
      4 CAI          5.2010    -1.0700    -0.1350 ca         1 PFN      -0.088000
      5 CAK          3.8660    -1.5100    -0.0860 ca         1 PFN      -0.160000
      6 CAR          2.8320    -0.5970     0.1800 ca         1 PFN       0.153100
      7 OAN          1.5350    -1.0590     0.2380 os         1 PFN      -0.253200
      8 CAO         -4.1700    -0.7230     0.2330 c          1 PFN       0.725000
      9 OAB         -4.4580    -1.7280     0.8670 o          1 PFN      -0.721000
     10 OAA         -4.6080    -0.4860    -0.8840 o          1 PFN      -0.721000
     11 CAM         -3.8260     1.6620     1.1050 c3         1 PFN      -0.050100
     12 CAH          0.5430     0.4300    -1.3970 ca         1 PFN      -0.169000
     13 CAF         -0.5750     1.1490    -1.8460 ca         1 PFN      -0.109000
     14 C2           0.4590    -0.3300    -0.2150 ca         1 PFN       0.081100
     15 CAD         -1.7780     1.1060    -1.1190 ca         1 PFN      -0.109000
     16 C13         -3.1770     0.2750     0.8700 c3         1 PFN      -0.177400
     17 CAE         -1.8760     0.3410     0.0630 ca         1 PFN       0.027700
     18 CAG         -0.7480    -0.3820     0.5010 ca         1 PFN      -0.113000
     19 HAK          3.6310    -2.5570    -0.2590 ha         1 PFN       0.129000
     20 HAI          6.0000    -1.7760    -0.3470 ha         1 PFN       0.102500
     21 HAP          6.5330     0.6260     0.0550 ha         1 PFN       0.102000
     22 HAJ          4.7040     2.2450     0.5540 ha         1 PFN       0.102500
     23 HAL          2.3420     1.4650     0.6480 ha         1 PFN       0.129000
     24 H13         -2.9320    -0.1130     1.8660 hc         1 PFN       0.036700
     25 HAM1        -4.6840     1.5700     1.7810 hc         1 PFN       0.015367
     26 HAM2        -3.1050     2.3500     1.5630 hc         1 PFN       0.015367
     27 HAM3        -4.1810     2.1080     0.1690 hc         1 PFN       0.015367
     28 HAG         -0.8030    -0.9840     1.4040 ha         1 PFN       0.122000
     29 HAD         -2.6370     1.6610    -1.4870 ha         1 PFN       0.120000
     30 HAF         -0.5140     1.7360    -2.7590 ha         1 PFN       0.094000
     31 HAH          1.4670     0.4580    -1.9690 ha         1 PFN       0.105000
@<TRIPOS>BOND
     1     1     2 ar  
     2     1     6 ar  
     3     1    23 1   
     4     2     3 ar  
     5     2    22 1   
     6     3     4 ar  
     7     3    21 1   
     8     4     5 ar  
     9     4    20 1   
    10     5     6 ar  
    11     5    19 1   
    12     6     7 1   
    13     7    14 1   
    14     8     9 1   
    15     8    10 1   
    16     8    16 1   
    17    11    16 1   
    18    11    25 1   
    19    11    26 1   
    20    11    27 1   
    21    12    13 ar  
    22    12    14 ar  
    23    12    31 1   
    24    13    15 ar  
    25    13    30 1   
    26    14    18 ar  
    27    15    17 ar  
    28    15    29 1   
    29    16    17 1   
    30    16    24 1   
    31    17    18 ar  
    32    18    28 1   
@<TRIPOS>SUBSTRUCTURE
     1 PFN         1 TEMP              0 ****  ****    0 ROOT
