@<TRIPOS>MOLECULE
PFN
   31    32     1     0     0
SMALL
bcc


@<TRIPOS>ATOM
      1 CAL          2.8920     0.7130     0.3350 ca         1 PFN      -0.178000
      2 CAJ          4.1690     1.2240     0.5240 ca         1 PFN      -0.106000
      3 CAP          5.2850     0.4020     0.4440 ca         1 PFN      -0.176000
      4 CAI          5.1140    -0.9500     0.1730 ca         1 PFN      -0.106000
      5 CAK          3.8450    -1.4750    -0.0220 ca         1 PFN      -0.178000
      6 CAR          2.7350    -0.6420     0.0600 ca         1 PFN       0.153100
      7 OAN          1.5170    -1.2330    -0.1000 os         1 PFN      -0.253200
      8 CAO         -4.1470    -0.5270     0.3190 c          1 PFN       0.935600
      9 OAB         -3.8050    -1.6330    -0.1440 o          1 PFN      -0.826300
     10 OAA         -5.3040    -0.0760     0.3930 o          1 PFN      -0.826300
     11 CAM         -3.4110     1.7820     1.2030 c3         1 PFN      -0.050100
     12 CAH          0.4420     0.1780    -1.7170 ca         1 PFN      -0.187000
     13 CAF         -0.6910     0.8890    -2.0870 ca         1 PFN      -0.127000
     14 C2           0.4420    -0.4720    -0.4920 ca         1 PFN       0.081100
     15 CAD         -1.7970     0.9470    -1.2530 ca         1 PFN      -0.127000
     16 C13         -2.9980     0.3500     0.8870 c3         1 PFN      -0.177400
     17 CAE         -1.7990     0.2900    -0.0230 ca         1 PFN       0.027700
     18 CAG         -0.6600    -0.4190     0.3480 ca         1 PFN      -0.131000
     19 HAK          3.7120    -2.5290    -0.2340 ha         1 PFN       0.147000
     20 HAI          5.9730    -1.6050     0.1060 ha         1 PFN       0.120500
     21 HAP          6.2760     0.8090     0.5920 ha         1 PFN       0.120000
     22 HAJ          4.2870     2.2780     0.7370 ha         1 PFN       0.120500
     23 HAL          2.0350     1.3700     0.4060 ha         1 PFN       0.147000
     24 H13         -2.7060    -0.1250     1.8320 hc         1 PFN       0.036700
     25 HAM1        -4.2110     1.7990     1.9420 hc         1 PFN       0.015367
     26 HAM2        -2.5720     2.3500     1.6090 hc         1 PFN       0.015367
     27 HAM3        -3.7730     2.3110     0.3210 hc         1 PFN       0.015367
     28 HAG         -0.6290    -0.9360     1.3000 ha         1 PFN       0.140000
     29 HAD         -2.6690     1.5070    -1.5700 ha         1 PFN       0.138000
     30 HAF         -0.7080     1.4010    -3.0410 ha         1 PFN       0.112000
     31 HAH          1.3040     0.1300    -2.3720 ha         1 PFN       0.123000
@<TRIPOS>BOND
     1     1     2 ar  
     2     1     6 ar  
     3     1    23 1   
     4     2     3 ar  
     5     2    22 1   
     6     3     4 ar  
     7     3    21 1   
     8     4     5 ar  
     9     4    20 1   
    10     5     6 ar  
    11     5    19 1   
    12     6     7 1   
    13     7    14 1   
    14     8     9 1   
    15     8    10 1   
    16     8    16 1   
    17    11    16 1   
    18    11    25 1   
    19    11    26 1   
    20    11    27 1   
    21    12    13 ar  
    22    12    14 ar  
    23    12    31 1   
    24    13    15 ar  
    25    13    30 1   
    26    14    18 ar  
    27    15    17 ar  
    28    15    29 1   
    29    16    17 1   
    30    16    24 1   
    31    17    18 ar  
    32    18    28 1   
@<TRIPOS>SUBSTRUCTURE
     1 PFN         1 TEMP              0 ****  ****    0 ROOT
