@<TRIPOS>MOLECULE
PFO
   53    57     1     0     0
SMALL
No Charge or Current Charge


@<TRIPOS>ATOM
      1 N3          -4.1870     0.0190     0.9180 n3         1 PFO      -0.721600
      2 C4           5.4770    -0.6410    -1.3730 ca         1 PFO      -0.159500
      3 N2           1.4370    -2.5870     0.4690 nc         1 PFO      -0.675000
      4 C7           2.0900    -1.4350     0.1430 cc         1 PFO       0.340500
      5 C6           3.5420    -1.3640    -0.0610 ca         1 PFO      -0.112500
      6 C9           0.1590    -2.2470     0.5610 cd         1 PFO       0.406400
      7 C13         -3.2460     0.3620     2.0200 c6         1 PFO       0.165300
      8 C20          0.8190     1.9310    -0.9490 ca         1 PFO      -0.292000
      9 C21          1.1770     3.2870    -1.0010 ca         1 PFO       0.153900
     10 C8           1.2540    -0.3500     0.0190 cd         1 PFO      -0.260500
     11 N5           2.2270     3.7610    -0.3050 nb         1 PFO      -0.247000
     12 C18         -7.9060    -1.1230    -1.0930 cc         1 PFO       0.159900
     13 C16         -6.6020     0.1730     0.1440 cd         1 PFO       0.266300
     14 C19          1.6060     1.0690    -0.1630 ca         1 PFO       0.248500
     15 C1           4.4080    -2.0930     0.7820 ca         1 PFO      -0.060500
     16 C2           5.7980    -2.0720     0.5670 ca         1 PFO      -0.159500
     17 C3           6.3280    -1.3410    -0.5050 ca         1 PFO       0.169000
     18 C5           4.0880    -0.6610    -1.1590 ca         1 PFO      -0.060500
     19 N1           0.0030    -0.8830     0.3270 na         1 PFO      -0.151500
     20 C10         -1.2670    -0.1350     0.5040 c6         1 PFO       0.077300
     21 C11         -2.2700    -0.4660    -0.6260 c6         1 PFO      -0.088400
     22 C12         -3.5940     0.3040    -0.4210 c6         1 PFO       0.165300
     23 C14         -1.9160    -0.4120     1.8830 c6         1 PFO      -0.088400
     24 C15         -5.5260     0.6500     1.1040 c3         1 PFO       0.130500
     25 C17         -6.8690    -1.1600    -0.2160 cd         1 PFO      -0.225000
     26 O1          -8.2730     0.1890    -1.2710 os         1 PFO      -0.069700
     27 N4          -7.4160     1.0250    -0.4590 nc         1 PFO      -0.367300
     28 C22          2.8950     2.8630     0.4340 ca         1 PFO       0.387900
     29 N6           2.6410     1.5520     0.5550 nb         1 PFO      -0.235000
     30 N7           3.9470     3.3400     1.1450 nv         1 PFO      -1.068900
     31 F1           7.6630    -1.3230    -0.7130 f          1 PFO      -0.183000
     32 H3          -0.6710    -2.8960     0.8150 h5         1 PFO       0.059100
     33 H4          -3.0370     1.4430     2.0200 h1         1 PFO       0.041450
     34 H5          -3.6950     0.1200     2.9950 h1         1 PFO       0.041450
     35 H6          -0.0270     1.5600    -1.5200 ha         1 PFO       0.136000
     36 H7           0.6180     4.0020    -1.6030 h4         1 PFO       0.022100
     37 H8          -8.4460    -1.8890    -1.6320 h4         1 PFO       0.058100
     38 H9           4.0030    -2.6680     1.6120 ha         1 PFO       0.123000
     39 H10          6.4620    -2.6230     1.2280 ha         1 PFO       0.129000
     40 H11          3.4350    -0.1350    -1.8520 ha         1 PFO       0.123000
     41 H12         -1.0520     0.9400     0.4680 h1         1 PFO       0.075700
     42 H13         -1.8400    -0.2080    -1.6020 hc         1 PFO       0.061950
     43 H14         -2.4780    -1.5440    -0.6470 hc         1 PFO       0.061950
     44 H15         -4.2890     0.0150    -1.2230 h1         1 PFO       0.041450
     45 H16         -3.4050     1.3820    -0.5320 h1         1 PFO       0.041450
     46 H17         -1.2310    -0.1160     2.6890 hc         1 PFO       0.061950
     47 H18         -2.1150    -1.4840     2.0120 hc         1 PFO       0.061950
     48 H19         -5.8920     0.4430     2.1190 h1         1 PFO       0.057700
     49 H20         -5.4400     1.7420     1.0180 h1         1 PFO       0.057700
     50 H21         -6.3460    -2.0410     0.1350 ha         1 PFO       0.163000
     51 H22          4.3080     4.2630     0.9140 hn         1 PFO       0.505000
     52 H23          4.6130     2.6760     1.5350 hn         1 PFO       0.505000
     53 H2           5.8930    -0.0910    -2.2130 ha         1 PFO       0.129000
@<TRIPOS>BOND
     1     1     7 1   
     2     1    22 1   
     3     1    24 1   
     4     2    17 ar  
     5     2    18 ar  
     6     2    53 1   
     7     3     4 1   
     8     3     6 2   
     9     4     5 1   
    10     4    10 2   
    11     5    15 ar  
    12     5    18 ar  
    13     6    19 1   
    14     6    32 1   
    15     7    23 1   
    16     7    33 1   
    17     7    34 1   
    18     8     9 ar  
    19     8    14 ar  
    20     8    35 1   
    21     9    11 ar  
    22     9    36 1   
    23    10    14 1   
    24    10    19 1   
    25    11    28 ar  
    26    12    25 2   
    27    12    26 1   
    28    12    37 1   
    29    13    24 1   
    30    13    25 1   
    31    13    27 2   
    32    14    29 ar  
    33    15    16 ar  
    34    15    38 1   
    35    16    17 ar  
    36    16    39 1   
    37    17    31 1   
    38    18    40 1   
    39    19    20 1   
    40    20    21 1   
    41    20    23 1   
    42    20    41 1   
    43    21    22 1   
    44    21    42 1   
    45    21    43 1   
    46    22    44 1   
    47    22    45 1   
    48    23    46 1   
    49    23    47 1   
    50    24    48 1   
    51    24    49 1   
    52    25    50 1   
    53    26    27 1   
    54    28    29 ar  
    55    28    30 1   
    56    30    51 1   
    57    30    52 1   
@<TRIPOS>SUBSTRUCTURE
     1 PFO         1 TEMP              0 ****  ****    0 ROOT
