@<TRIPOS>MOLECULE
PFO
   53    57     1     0     0
SMALL
bcc


@<TRIPOS>ATOM
      1 N3          -4.1370     0.0810     0.8930 n3         1 PFO      -0.721600
      2 C4           5.5410    -0.6090    -1.1920 ca         1 PFO      -0.177500
      3 N2           1.3850    -2.4880     0.4060 nc         1 PFO      -0.675000
      4 C7           2.0890    -1.3490     0.1490 cc         1 PFO       0.405800
      5 C6           3.5340    -1.4010    -0.0880 ca         1 PFO      -0.112500
      6 C9           0.1390    -2.1180     0.5360 cd         1 PFO       0.406400
      7 C13         -3.2360     0.4230     1.9790 c6         1 PFO       0.165300
      8 C20          0.7990     1.8960    -1.0370 ca         1 PFO      -0.440600
      9 C21          1.1640     3.2280    -1.1560 ca         1 PFO       0.482200
     10 C8           1.2310    -0.2700     0.1270 cd         1 PFO      -0.275100
     11 N5           2.1200     3.7840    -0.4340 nb         1 PFO      -0.773000
     12 C18         -7.7010    -1.2860    -0.9510 cc         1 PFO       0.269600
     13 C16         -6.4430     0.1000     0.1490 cd         1 PFO       0.331600
     14 C19          1.4970     1.1550    -0.0870 ca         1 PFO       0.576800
     15 C1           4.3010    -2.3730     0.5570 ca         1 PFO      -0.078500
     16 C2           5.6680    -2.4660     0.3480 ca         1 PFO      -0.177500
     17 C3           6.2660    -1.5760    -0.5220 ca         1 PFO       0.133900
     18 C5           4.1740    -0.5320    -0.9730 ca         1 PFO      -0.078500
     19 N1          -0.0180    -0.7890     0.3690 na         1 PFO      -0.172900
     20 C10         -1.2770    -0.0670     0.5260 c6         1 PFO       0.048000
     21 C11         -2.2480    -0.3750    -0.6060 c6         1 PFO      -0.088400
     22 C12         -3.5450     0.3890    -0.3980 c6         1 PFO       0.165300
     23 C14         -1.9330    -0.3530     1.8710 c6         1 PFO      -0.088400
     24 C15         -5.4280     0.7130     1.0560 c3         1 PFO       0.130500
     25 C17         -6.6640    -1.2830    -0.0870 cd         1 PFO      -0.373600
     26 O1          -8.0750    -0.0350    -1.2180 os         1 PFO      -0.114100
     27 N4          -7.2790     0.8310    -0.5290 nc         1 PFO      -0.367300
     28 C22          2.7380     2.9830     0.4450 ca         1 PFO       0.913900
     29 N6           2.4570     1.6930     0.6520 nb         1 PFO      -0.761000
     30 N7           3.7050     3.5280     1.2000 nv         1 PFO      -0.958500
     31 F1           7.5910    -1.6580    -0.7290 f          1 PFO      -0.147900
     32 H3          -0.6870    -2.7760     0.7560 h5         1 PFO       0.059100
     33 H4          -3.0160     1.5050     2.0030 h1         1 PFO       0.041450
     34 H5          -3.7190     0.1780     2.9280 h1         1 PFO       0.041450
     35 H6           0.0370     1.4640    -1.6690 ha         1 PFO       0.154000
     36 H7           0.6650     3.8680    -1.8750 h4         1 PFO       0.022100
     37 H8          -8.2540    -2.0740    -1.4390 h4         1 PFO       0.058100
     38 H9           3.8230    -3.0640     1.2390 ha         1 PFO       0.141000
     39 H10          6.2560    -3.2180     0.8560 ha         1 PFO       0.147000
     40 H11          3.6050     0.2060    -1.5210 ha         1 PFO       0.141000
     41 H12         -1.0320     0.9960     0.4940 h1         1 PFO       0.075700
     42 H13         -1.8140    -0.0990    -1.5700 hc         1 PFO       0.061950
     43 H14         -2.4570    -1.4480    -0.6370 hc         1 PFO       0.061950
     44 H15         -4.2450     0.1170    -1.1910 h1         1 PFO       0.041450
     45 H16         -3.3580     1.4720    -0.5040 h1         1 PFO       0.041450
     46 H17         -1.2650    -0.0640     2.6850 hc         1 PFO       0.061950
     47 H18         -2.1420    -1.4200     1.9770 hc         1 PFO       0.061950
     48 H19         -5.7590     0.5580     2.0870 h1         1 PFO       0.057700
     49 H20         -5.4000     1.8020     0.8940 h1         1 PFO       0.057700
     50 H21         -6.1280    -2.1220     0.3210 ha         1 PFO       0.181000
     51 H22          4.0240     4.4610     1.0090 hn         1 PFO       0.449800
     52 H23          4.2740     2.9400     1.7830 hn         1 PFO       0.449800
     53 H2           6.0300     0.0640    -1.8830 ha         1 PFO       0.147000
@<TRIPOS>BOND
     1     1     7 1   
     2     1    22 1   
     3     1    24 1   
     4     2    17 ar  
     5     2    18 ar  
     6     2    53 1   
     7     3     4 1   
     8     3     6 2   
     9     4     5 1   
    10     4    10 2   
    11     5    15 ar  
    12     5    18 ar  
    13     6    19 1   
    14     6    32 1   
    15     7    23 1   
    16     7    33 1   
    17     7    34 1   
    18     8     9 ar  
    19     8    14 ar  
    20     8    35 1   
    21     9    11 ar  
    22     9    36 1   
    23    10    14 1   
    24    10    19 1   
    25    11    28 ar  
    26    12    25 2   
    27    12    26 1   
    28    12    37 1   
    29    13    24 1   
    30    13    25 1   
    31    13    27 2   
    32    14    29 ar  
    33    15    16 ar  
    34    15    38 1   
    35    16    17 ar  
    36    16    39 1   
    37    17    31 1   
    38    18    40 1   
    39    19    20 1   
    40    20    21 1   
    41    20    23 1   
    42    20    41 1   
    43    21    22 1   
    44    21    42 1   
    45    21    43 1   
    46    22    44 1   
    47    22    45 1   
    48    23    46 1   
    49    23    47 1   
    50    24    48 1   
    51    24    49 1   
    52    25    50 1   
    53    26    27 1   
    54    28    29 ar  
    55    28    30 1   
    56    30    51 1   
    57    30    52 1   
@<TRIPOS>SUBSTRUCTURE
     1 PFO         1 TEMP              0 ****  ****    0 ROOT
