@<TRIPOS>MOLECULE
PFP
   50    53     1     0     0
SMALL
No Charge or Current Charge


@<TRIPOS>ATOM
      1 CAB          5.6280    -0.7260    -1.0830 c3         1 PFP       0.147900
      2 OAS          4.8070     0.3370    -0.5670 os         1 PFP      -0.341100
      3 CAV          3.4300     0.2530    -0.5330 ca         1 PFP       0.140100
      4 CAG          2.7190     1.3420    -0.0060 ca         1 PFP      -0.174000
      5 CAK          1.3150     1.3130     0.0560 ca         1 PFP      -0.065500
      6 CAF          2.7240    -0.8760    -1.0040 ca         1 PFP      -0.174000
      7 CAJ          1.3200    -0.9040    -0.9420 ca         1 PFP      -0.065500
      8 CAX          0.6110     0.1870    -0.4080 ca         1 PFP      -0.069800
      9 CBA         -0.8430     0.1550    -0.3430 cc         1 PFP      -0.041400
     10 CBC         -1.8060     0.1680    -1.4250 ca         1 PFP      -0.276800
     11 CAY         -1.6950     0.2170    -2.8140 ca         1 PFP       0.437900
     12 NAQ         -0.4650     0.2590    -3.4440 nu         1 PFP      -0.913100
     13 CAN         -0.1910     0.0740    -4.8840 c3         1 PFP       0.226800
     14 CAM          1.3170     0.2620    -5.2110 c3         1 PFP       0.140600
     15 OAC          2.1430    -0.6060    -4.4100 oh         1 PFP      -0.669000
     16 NAO         -2.8090     0.2320    -3.5770 nb         1 PFP      -0.299000
     17 CAL         -4.0010     0.2060    -2.9240 ca         1 PFP       0.183900
     18 NAP         -4.1940     0.1710    -1.5830 nb         1 PFP      -0.205000
     19 CBB         -3.0600     0.1540    -0.8660 ca         1 PFP       0.291300
     20 OAT         -2.9420     0.1400     0.4920 os         1 PFP      -0.274400
     21 CAZ         -1.6050     0.1460     0.8250 cd         1 PFP       0.097900
     22 CAW         -1.2640     0.0180     2.2640 ca         1 PFP      -0.080800
     23 CAH         -2.2680     0.2160     3.2380 ca         1 PFP      -0.042500
     24 CAD         -1.9750     0.1030     4.6080 ca         1 PFP      -0.180000
     25 CAU         -0.6800    -0.2160     5.0360 ca         1 PFP       0.155100
     26 OAR         -0.4520    -0.3140     6.3930 os         1 PFP      -0.338100
     27 CAA          0.8430    -0.6370     6.9320 c3         1 PFP       0.147900
     28 CAE          0.3290    -0.4290     4.0750 ca         1 PFP      -0.180000
     29 CAI          0.0370    -0.3150     2.7040 ca         1 PFP      -0.042500
     30 HAB1         6.6890    -0.4540    -1.0160 h1         1 PFP       0.041700
     31 HAB2         5.4770    -1.6490    -0.5100 h1         1 PFP       0.041700
     32 HAB3         5.3940    -0.9230    -2.1370 h1         1 PFP       0.041700
     33 HAG          3.2590     2.2130     0.3560 ha         1 PFP       0.125500
     34 HAK          0.7730     2.1620     0.4660 ha         1 PFP       0.124000
     35 HAF          3.2430    -1.7350    -1.4200 ha         1 PFP       0.125500
     36 HAJ          0.7800    -1.7770    -1.3030 ha         1 PFP       0.124000
     37 HAQ          0.3360     0.1460    -2.8210 hn         1 PFP       0.516000
     38 HAN1        -0.5010    -0.9320    -5.2010 h1         1 PFP       0.064200
     39 HAN2        -0.7680     0.7980    -5.4760 h1         1 PFP       0.064200
     40 HAM1         1.4730     0.0600    -6.2790 h1         1 PFP       0.034200
     41 HAM2         1.5870     1.3120    -5.0310 h1         1 PFP       0.034200
     42 HAC          3.0750    -0.4400    -4.6740 ho         1 PFP       0.448000
     43 HAL         -4.8960     0.2190    -3.5440 h5         1 PFP       0.049100
     44 HAH         -3.2830     0.4710     2.9410 ha         1 PFP       0.126500
     45 HAD         -2.7590     0.2660     5.3440 ha         1 PFP       0.124500
     46 HAA1         0.8030    -0.6610     8.0280 h1         1 PFP       0.042033
     47 HAA2         1.1760    -1.6220     6.5820 h1         1 PFP       0.042033
     48 HAA3         1.5870     0.1130     6.6350 h1         1 PFP       0.042033
     49 HAE          1.3420    -0.6900     4.3700 ha         1 PFP       0.124500
     50 HAI          0.8340    -0.5140     1.9970 ha         1 PFP       0.126500
@<TRIPOS>BOND
     1     1     2 1   
     2     1    30 1   
     3     1    31 1   
     4     1    32 1   
     5     2     3 1   
     6     3     4 ar  
     7     3     6 ar  
     8     4     5 ar  
     9     4    33 1   
    10     5     8 ar  
    11     5    34 1   
    12     6     7 ar  
    13     6    35 1   
    14     7     8 ar  
    15     7    36 1   
    16     8     9 1   
    17     9    10 1   
    18     9    21 2   
    19    10    11 ar  
    20    10    19 ar  
    21    11    12 1   
    22    11    16 ar  
    23    12    13 1   
    24    12    37 1   
    25    13    14 1   
    26    13    38 1   
    27    13    39 1   
    28    14    15 1   
    29    14    40 1   
    30    14    41 1   
    31    15    42 1   
    32    16    17 ar  
    33    17    18 ar  
    34    17    43 1   
    35    18    19 ar  
    36    19    20 1   
    37    20    21 1   
    38    21    22 1   
    39    22    23 ar  
    40    22    29 ar  
    41    23    24 ar  
    42    23    44 1   
    43    24    25 ar  
    44    24    45 1   
    45    25    26 1   
    46    25    28 ar  
    47    26    27 1   
    48    27    46 1   
    49    27    47 1   
    50    27    48 1   
    51    28    29 ar  
    52    28    49 1   
    53    29    50 1   
@<TRIPOS>SUBSTRUCTURE
     1 PFP         1 TEMP              0 ****  ****    0 ROOT
