@<TRIPOS>MOLECULE
PFP
   50    53     1     0     0
SMALL
bcc


@<TRIPOS>ATOM
      1 CAB          5.6460    -0.6930    -1.1940 c3         1 PFP       0.124700
      2 OAS          4.8780     0.3020    -0.5460 os         1 PFP      -0.317900
      3 CAV          3.5430     0.1540    -0.5000 ca         1 PFP       0.140100
      4 CAG          2.8280     1.1750     0.1320 ca         1 PFP      -0.192000
      5 CAK          1.4520     1.1170     0.2130 ca         1 PFP      -0.083500
      6 CAF          2.8520    -0.9290    -1.0380 ca         1 PFP      -0.192000
      7 CAJ          1.4670    -0.9790    -0.9370 ca         1 PFP      -0.083500
      8 CAX          0.7440     0.0370    -0.3220 ca         1 PFP      -0.069800
      9 CBA         -0.7240    -0.0060    -0.2640 cc         1 PFP      -0.041400
     10 CBC         -1.6270    -0.0070    -1.3820 ca         1 PFP      -0.407400
     11 CAY         -1.5640     0.0330    -2.7940 ca         1 PFP       0.766200
     12 NAQ         -0.4080     0.0840    -3.4620 nu         1 PFP      -0.857900
     13 CAN         -0.2950     0.0650    -4.9030 c3         1 PFP       0.226800
     14 CAM          1.0830     0.5390    -5.3100 c3         1 PFP       0.117400
     15 OAC          2.0440    -0.3100    -4.7200 oh         1 PFP      -0.606800
     16 NAO         -2.7120     0.0410    -3.4810 nb         1 PFP      -0.825000
     17 CAL         -3.8620     0.0380    -2.8190 ca         1 PFP       0.709900
     18 NAP         -4.0470     0.0290    -1.5080 nb         1 PFP      -0.731000
     19 CBB         -2.9010     0.0090    -0.8520 ca         1 PFP       0.619600
     20 OAT         -2.8430     0.0140     0.4850 os         1 PFP      -0.274400
     21 CAZ         -1.5200     0.0000     0.8410 cd         1 PFP       0.097900
     22 CAW         -1.2460    -0.0100     2.2680 ca         1 PFP      -0.080800
     23 CAH         -2.1550     0.5420     3.1790 ca         1 PFP      -0.060500
     24 CAD         -1.8990     0.5320     4.5350 ca         1 PFP      -0.198000
     25 CAU         -0.7200    -0.0320     5.0290 ca         1 PFP       0.155100
     26 OAR         -0.5530     0.0030     6.3600 os         1 PFP      -0.314900
     27 CAA          0.6130    -0.5740     6.9150 c3         1 PFP       0.124700
     28 CAE          0.1910    -0.5910     4.1340 ca         1 PFP      -0.198000
     29 CAI         -0.0780    -0.5790     2.7740 ca         1 PFP      -0.060500
     30 HAB1         6.6830    -0.3730    -1.1310 h1         1 PFP       0.041700
     31 HAB2         5.5490    -1.6670    -0.7070 h1         1 PFP       0.041700
     32 HAB3         5.3730    -0.7960    -2.2470 h1         1 PFP       0.041700
     33 HAG          3.3620     2.0190     0.5500 ha         1 PFP       0.143500
     34 HAK          0.9140     1.9250     0.6930 ha         1 PFP       0.142000
     35 HAF          3.3640    -1.7420    -1.5320 ha         1 PFP       0.143500
     36 HAJ          0.9480    -1.8410    -1.3410 ha         1 PFP       0.142000
     37 HAQ          0.4470    -0.0380    -2.9420 hn         1 PFP       0.460800
     38 HAN1        -0.4870    -0.9380    -5.2990 h1         1 PFP       0.064200
     39 HAN2        -1.0380     0.7300    -5.3420 h1         1 PFP       0.064200
     40 HAM1         1.1440     0.5250    -6.4050 h1         1 PFP       0.034200
     41 HAM2         1.2150     1.5780    -4.9890 h1         1 PFP       0.034200
     42 HAC          2.8860     0.1520    -4.6900 ho         1 PFP       0.409000
     43 HAL         -4.7580     0.0450    -3.4300 h5         1 PFP       0.049100
     44 HAH         -3.0740     0.9950     2.8320 ha         1 PFP       0.144500
     45 HAD         -2.6120     0.9670     5.2230 ha         1 PFP       0.142500
     46 HAA1         0.5400    -0.4420     7.9920 h1         1 PFP       0.042033
     47 HAA2         0.6840    -1.6420     6.6950 h1         1 PFP       0.042033
     48 HAA3         1.5210    -0.0780     6.5620 h1         1 PFP       0.042033
     49 HAE          1.1100    -1.0480     4.4740 ha         1 PFP       0.142500
     50 HAI          0.6360    -1.0420     2.1070 ha         1 PFP       0.144500
@<TRIPOS>BOND
     1     1     2 1   
     2     1    30 1   
     3     1    31 1   
     4     1    32 1   
     5     2     3 1   
     6     3     4 ar  
     7     3     6 ar  
     8     4     5 ar  
     9     4    33 1   
    10     5     8 ar  
    11     5    34 1   
    12     6     7 ar  
    13     6    35 1   
    14     7     8 ar  
    15     7    36 1   
    16     8     9 1   
    17     9    10 1   
    18     9    21 2   
    19    10    11 ar  
    20    10    19 ar  
    21    11    12 1   
    22    11    16 ar  
    23    12    13 1   
    24    12    37 1   
    25    13    14 1   
    26    13    38 1   
    27    13    39 1   
    28    14    15 1   
    29    14    40 1   
    30    14    41 1   
    31    15    42 1   
    32    16    17 ar  
    33    17    18 ar  
    34    17    43 1   
    35    18    19 ar  
    36    19    20 1   
    37    20    21 1   
    38    21    22 1   
    39    22    23 ar  
    40    22    29 ar  
    41    23    24 ar  
    42    23    44 1   
    43    24    25 ar  
    44    24    45 1   
    45    25    26 1   
    46    25    28 ar  
    47    26    27 1   
    48    27    46 1   
    49    27    47 1   
    50    27    48 1   
    51    28    29 ar  
    52    28    49 1   
    53    29    50 1   
@<TRIPOS>SUBSTRUCTURE
     1 PFP         1 TEMP              0 ****  ****    0 ROOT
