@<TRIPOS>MOLECULE
PFQ
   42    45     1     0     0
SMALL
bcc


@<TRIPOS>ATOM
      1 C2          -3.4870     0.0190     2.0680 ca         1 PFQ       0.711900
      2 C10         -0.9400    -0.0050    -1.4500 cc         1 PFQ       0.086900
      3 C11         -0.5790    -0.0210    -2.8600 ca         1 PFQ      -0.038800
      4 C12         -1.4060     0.5830    -3.8110 ca         1 PFQ      -0.099000
      5 C13         -1.0580     0.5680    -5.1530 ca         1 PFQ      -0.134000
      6 C14          0.1160    -0.0470    -5.5670 ca         1 PFQ      -0.115000
      7 C15          0.9390    -0.6560    -4.6280 ca         1 PFQ      -0.134000
      8 C16          0.5950    -0.6480    -3.2860 ca         1 PFQ      -0.099000
      9 C19          1.9140    -1.0080     0.5250 ca         1 PFQ      -0.118000
     10 C20          3.2930    -0.9730     0.6830 ca         1 PFQ      -0.129500
     11 C21          4.0290     0.0730     0.1440 ca         1 PFQ      -0.123000
     12 C22          3.3800     1.0880    -0.5480 ca         1 PFQ      -0.129500
     13 N1          -3.5960     0.0200     0.7480 nb         1 PFQ      -0.732000
     14 C6          -2.4150     0.0080     0.1590 ca         1 PFQ       0.621600
     15 O6          -2.2800     0.0150    -1.1710 os         1 PFQ      -0.271400
     16 C5          -1.1730    -0.0100     0.7630 ca         1 PFQ      -0.411400
     17 C4          -1.1900     0.0250     2.1770 ca         1 PFQ       0.769200
     18 N3          -2.3770     0.0290     2.7950 nb         1 PFQ      -0.826000
     19 C17          2.0020     1.0600    -0.6970 ca         1 PFQ      -0.118000
     20 C1          -0.2080    -0.0140    -0.3010 cd         1 PFQ      -0.040400
     21 C18          1.2550     0.0110    -0.1640 ca         1 PFQ      -0.032800
     22 C23          1.2680    -0.4400     4.8630 c3         1 PFQ       0.117400
     23 C8          -0.0340     0.1370     4.3510 c3         1 PFQ       0.224800
     24 O24          2.3370     0.2750     4.2800 oh         1 PFQ      -0.603800
     25 H2          -4.4170     0.0190     2.6270 h5         1 PFQ       0.050100
     26 H12         -2.3200     1.0760    -3.5080 ha         1 PFQ       0.143500
     27 H13         -1.7080     1.0420    -5.8770 ha         1 PFQ       0.133500
     28 H14          0.3860    -0.0560    -6.6150 ha         1 PFQ       0.132000
     29 H15          1.8490    -1.1490    -4.9420 ha         1 PFQ       0.133500
     30 H16          1.2330    -1.1500    -2.5710 ha         1 PFQ       0.143500
     31 H19          1.3470    -1.8360     0.9330 ha         1 PFQ       0.139500
     32 H20          3.7900    -1.7690     1.2220 ha         1 PFQ       0.132000
     33 H21          5.1040     0.1000     0.2660 ha         1 PFQ       0.132000
     34 H22          3.9480     1.9080    -0.9680 ha         1 PFQ       0.132000
     35 H9           0.8050     0.1730     2.4320 hn         1 PFQ       0.462800
     36 H17          1.4980     1.8610    -1.2230 ha         1 PFQ       0.139500
     37 H231         1.3120    -1.5050     4.6090 h1         1 PFQ       0.032700
     38 H232         1.2730    -0.3640     5.9560 h1         1 PFQ       0.032700
     39 H8C1        -0.8620    -0.4270     4.7770 h1         1 PFQ       0.066200
     40 H8C2        -0.1480     1.1750     4.6830 h1         1 PFQ       0.066200
     41 H24          3.1330    -0.2590     4.3410 ho         1 PFQ       0.409000
     42 N9          -0.0740     0.0490     2.9090 nu         1 PFQ      -0.857900
@<TRIPOS>BOND
     1     1    13 ar  
     2     1    18 ar  
     3     1    25 1   
     4     2     3 1   
     5     2    15 1   
     6     2    20 2   
     7     3     4 ar  
     8     3     8 ar  
     9     4     5 ar  
    10     4    26 1   
    11     5     6 ar  
    12     5    27 1   
    13     6     7 ar  
    14     6    28 1   
    15     7     8 ar  
    16     7    29 1   
    17     8    30 1   
    18     9    10 ar  
    19     9    21 ar  
    20     9    31 1   
    21    10    11 ar  
    22    10    32 1   
    23    11    12 ar  
    24    11    33 1   
    25    12    19 ar  
    26    12    34 1   
    27    13    14 ar  
    28    14    15 1   
    29    14    16 ar  
    30    16    17 ar  
    31    16    20 1   
    32    17    18 ar  
    33    17    42 1   
    34    19    21 ar  
    35    19    36 1   
    36    20    21 1   
    37    22    23 1   
    38    22    24 1   
    39    22    37 1   
    40    22    38 1   
    41    23    39 1   
    42    23    40 1   
    43    23    42 1   
    44    24    41 1   
    45    35    42 1   
@<TRIPOS>SUBSTRUCTURE
     1 PFQ         1 TEMP              0 ****  ****    0 ROOT
