@<TRIPOS>MOLECULE
PFQ
   42    45     1     0     0
SMALL
No Charge or Current Charge


@<TRIPOS>ATOM
      1 C2          -3.6140    -0.2200     2.1740 ca         1 PFQ       0.185900
      2 C10         -1.1150     0.0110    -1.4560 cc         1 PFQ       0.086900
      3 C11         -0.5910     0.0860    -2.8210 ca         1 PFQ      -0.038800
      4 C12         -1.1310     1.0210    -3.7250 ca         1 PFQ      -0.081000
      5 C13         -0.6470     1.1000    -5.0430 ca         1 PFQ      -0.116000
      6 C14          0.3770     0.2380    -5.4690 ca         1 PFQ      -0.097000
      7 C15          0.9110    -0.7080    -4.5780 ca         1 PFQ      -0.116000
      8 C16          0.4260    -0.7870    -3.2610 ca         1 PFQ      -0.081000
      9 C19          1.7350    -1.1000     0.7230 ca         1 PFQ      -0.100000
     10 C20          3.1330    -1.0880     0.8620 ca         1 PFQ      -0.111500
     11 C21          3.9050    -0.1730     0.1290 ca         1 PFQ      -0.105000
     12 C22          3.2770     0.7220    -0.7510 ca         1 PFQ      -0.111500
     13 N1          -3.7400    -0.1240     0.8310 nb         1 PFQ      -0.206000
     14 C6          -2.5820    -0.1380     0.1490 ca         1 PFQ       0.293300
     15 O6          -2.4840     0.0160    -1.2170 os         1 PFQ      -0.271400
     16 C5          -1.3570    -0.2550     0.7660 ca         1 PFQ      -0.280800
     17 C4          -1.3130    -0.2970     2.1670 ca         1 PFQ       0.440900
     18 N3          -2.4580    -0.2900     2.8770 nb         1 PFQ      -0.300000
     19 C17          1.8780     0.7080    -0.8900 ca         1 PFQ      -0.100000
     20 C1          -0.3810    -0.2190    -0.3020 cd         1 PFQ      -0.040400
     21 C18          1.0890    -0.1910    -0.1410 ca         1 PFQ      -0.032800
     22 C23          1.5440    -0.0020     4.7190 c3         1 PFQ       0.140600
     23 C8           0.0420     0.0210     4.3190 c3         1 PFQ       0.224800
     24 O24          2.3250     0.8690     3.8750 oh         1 PFQ      -0.666000
     25 H2          -4.5370    -0.2160     2.7510 h5         1 PFQ       0.050100
     26 H12         -1.9250     1.6920    -3.4030 ha         1 PFQ       0.125500
     27 H13         -1.0660     1.8290    -5.7330 ha         1 PFQ       0.115500
     28 H14          0.7510     0.2990    -6.4890 ha         1 PFQ       0.114000
     29 H15          1.6990    -1.3820    -4.9080 ha         1 PFQ       0.115500
     30 H16          0.8390    -1.5310    -2.5840 ha         1 PFQ       0.125500
     31 H19          1.1560    -1.8500     1.2580 ha         1 PFQ       0.121500
     32 H20          3.6190    -1.7970     1.5290 ha         1 PFQ       0.114000
     33 H21          4.9880    -0.1650     0.2350 ha         1 PFQ       0.114000
     34 H22          3.8720     1.4280    -1.3250 ha         1 PFQ       0.114000
     35 H9           0.6940    -0.0570     2.3040 hn         1 PFQ       0.518000
     36 H17          1.4070     1.4180    -1.5650 ha         1 PFQ       0.121500
     37 H231         1.9140    -1.0330     4.6370 h1         1 PFQ       0.032700
     38 H232         1.6360     0.2990     5.7720 h1         1 PFQ       0.032700
     39 H8C1        -0.4940    -0.7300     4.9160 h1         1 PFQ       0.066200
     40 H8C2        -0.3750     1.0060     4.5720 h1         1 PFQ       0.066200
     41 H24          3.2560     0.8140     4.1870 ho         1 PFQ       0.448000
     42 N9          -0.1290    -0.2480     2.8770 nu         1 PFQ      -0.913100
@<TRIPOS>BOND
     1     1    13 ar  
     2     1    18 ar  
     3     1    25 1   
     4     2     3 1   
     5     2    15 1   
     6     2    20 2   
     7     3     4 ar  
     8     3     8 ar  
     9     4     5 ar  
    10     4    26 1   
    11     5     6 ar  
    12     5    27 1   
    13     6     7 ar  
    14     6    28 1   
    15     7     8 ar  
    16     7    29 1   
    17     8    30 1   
    18     9    10 ar  
    19     9    21 ar  
    20     9    31 1   
    21    10    11 ar  
    22    10    32 1   
    23    11    12 ar  
    24    11    33 1   
    25    12    19 ar  
    26    12    34 1   
    27    13    14 ar  
    28    14    15 1   
    29    14    16 ar  
    30    16    17 ar  
    31    16    20 1   
    32    17    18 ar  
    33    17    42 1   
    34    19    21 ar  
    35    19    36 1   
    36    20    21 1   
    37    22    23 1   
    38    22    24 1   
    39    22    37 1   
    40    22    38 1   
    41    23    39 1   
    42    23    40 1   
    43    23    42 1   
    44    24    41 1   
    45    35    42 1   
@<TRIPOS>SUBSTRUCTURE
     1 PFQ         1 TEMP              0 ****  ****    0 ROOT
