@<TRIPOS>MOLECULE
PFR
   61    65     1     0     0
SMALL
abcg2


@<TRIPOS>ATOM
      1 C1          -2.9990    -2.2990    -0.7480 ca         1 PFR       0.156100
      2 C2          -2.1850    -1.1820    -0.3760 ca         1 PFR       0.114100
      3 C3          -1.0280    -1.3870     0.3240 ca         1 PFR      -0.151000
      4 C4          -2.6410    -3.5620    -0.3560 ca         1 PFR      -0.190000
      5 C5          -1.4570    -3.7800     0.3830 ca         1 PFR       0.056000
      6 C6          -0.6130    -2.6930     0.6710 ca         1 PFR      -0.154000
      7 C7           0.5920    -3.0010     1.3790 ca         1 PFR       0.396900
      8 N8           0.7790    -4.2140     1.8680 nb         1 PFR      -0.274000
      9 C9          -0.1290    -5.1530     1.5800 ca         1 PFR       0.154900
     10 N10         -1.1920    -5.0320     0.8340 nb         1 PFR      -0.200000
     11 O11         -4.0910    -1.9860    -1.4480 os         1 PFR      -0.317100
     12 O12         -2.6580     0.0160    -0.7550 os         1 PFR      -0.328100
     13 C13         -4.9540    -3.0340    -1.8510 c3         1 PFR       0.142900
     14 N14          1.5410    -2.0510     1.6120 nh         1 PFR      -0.784300
     15 C15          2.5250    -2.2510     2.6650 c6         1 PFR       0.215800
     16 C16          2.8990    -0.8990     3.2590 c6         1 PFR      -0.089400
     17 C17          3.3820     0.0820     2.1990 c6         1 PFR      -0.068400
     18 C18          2.3670     0.1940     1.0570 c6         1 PFR      -0.028400
     19 C19          2.0430    -1.2080     0.5360 c6         1 PFR       0.220800
     20 C20          2.8290     1.0960    -0.0560 ca         1 PFR      -0.079300
     21 C21          4.0090     0.8360    -0.7540 ca         1 PFR      -0.105500
     22 C22          4.4240     1.6660    -1.7870 ca         1 PFR      -0.109500
     23 C23          3.6650     2.7750    -2.1400 ca         1 PFR      -0.109000
     24 C24          2.4900     3.0440    -1.4540 ca         1 PFR      -0.109500
     25 C25          2.0780     2.2100    -0.4220 ca         1 PFR      -0.105500
     26 C26         -1.8560     1.1560    -0.5030 c3         1 PFR       0.160600
     27 C27         -2.5560     2.3650    -1.0970 c3         1 PFR      -0.127700
     28 C28         -1.7560     3.6110    -0.8400 ca         1 PFR       0.345300
     29 N29         -1.6290     3.9870     0.4320 nb         1 PFR      -0.675000
     30 C30         -0.9180     5.0720     0.7060 ca         1 PFR       0.340900
     31 C31         -0.3000     5.8480    -0.2640 ca         1 PFR      -0.164000
     32 C32         -0.4320     5.4600    -1.5880 ca         1 PFR      -0.075000
     33 C33         -1.1660     4.3210    -1.8810 ca         1 PFR      -0.155000
     34 H3          -0.4460    -0.5430     0.6610 ha         1 PFR       0.131000
     35 H4          -3.2570    -4.4230    -0.5800 ha         1 PFR       0.141000
     36 H9           0.0660    -6.1340     2.0020 h5         1 PFR       0.043100
     37 H13         -4.4420    -3.7520    -2.4960 h1         1 PFR       0.045033
     38 H13A        -5.3740    -3.5630    -0.9930 h1         1 PFR       0.045033
     39 H13B        -5.7610    -2.5690    -2.4100 h1         1 PFR       0.045033
     40 H15          2.1040    -2.8940     3.4340 h1         1 PFR       0.054700
     41 H15A         3.4170    -2.7570     2.2730 h1         1 PFR       0.054700
     42 H16          2.0240    -0.4860     3.7700 hc         1 PFR       0.050200
     43 H16A         3.6710    -1.0460     4.0180 hc         1 PFR       0.050200
     44 H17          3.5550     1.0650     2.6420 hc         1 PFR       0.045200
     45 H17A         4.3450    -0.2550     1.8010 hc         1 PFR       0.045200
     46 H18          1.4400     0.6100     1.4710 hc         1 PFR       0.061700
     47 H19          2.9540    -1.6670     0.1240 h1         1 PFR       0.050200
     48 H19A         1.3310    -1.1620    -0.2840 h1         1 PFR       0.050200
     49 H21          4.6190    -0.0200    -0.4890 ha         1 PFR       0.112500
     50 H22          5.3430     1.4460    -2.3140 ha         1 PFR       0.112500
     51 H23          3.9900     3.4230    -2.9440 ha         1 PFR       0.112000
     52 H24          1.8890     3.9040    -1.7200 ha         1 PFR       0.112500
     53 H25          1.1590     2.4360     0.1080 ha         1 PFR       0.112500
     54 H26         -1.7160     1.2970     0.5740 h1         1 PFR       0.044200
     55 H26A        -0.8670     1.0270    -0.9600 h1         1 PFR       0.044200
     56 H27         -2.6940     2.2240    -2.1700 hc         1 PFR       0.070700
     57 H27A        -3.5460     2.4690    -0.6460 hc         1 PFR       0.070700
     58 H30         -0.8370     5.3440     1.7530 h4         1 PFR       0.021100
     59 H31          0.2640     6.7270     0.0150 ha         1 PFR       0.126000
     60 H32          0.0310     6.0330    -2.3810 ha         1 PFR       0.120000
     61 H33         -1.2840     3.9860    -2.9030 ha         1 PFR       0.126000
@<TRIPOS>BOND
     1     1     2 ar  
     2     1     4 ar  
     3     1    11 1   
     4     2     3 ar  
     5     2    12 1   
     6     3     6 ar  
     7     3    34 1   
     8     4     5 ar  
     9     4    35 1   
    10     5     6 ar  
    11     5    10 ar  
    12     6     7 ar  
    13     7     8 ar  
    14     7    14 1   
    15     8     9 ar  
    16     9    10 ar  
    17     9    36 1   
    18    11    13 1   
    19    12    26 1   
    20    13    37 1   
    21    13    38 1   
    22    13    39 1   
    23    14    15 1   
    24    14    19 1   
    25    15    16 1   
    26    15    40 1   
    27    15    41 1   
    28    16    17 1   
    29    16    42 1   
    30    16    43 1   
    31    17    18 1   
    32    17    44 1   
    33    17    45 1   
    34    18    19 1   
    35    18    20 1   
    36    18    46 1   
    37    19    47 1   
    38    19    48 1   
    39    20    21 ar  
    40    20    25 ar  
    41    21    22 ar  
    42    21    49 1   
    43    22    23 ar  
    44    22    50 1   
    45    23    24 ar  
    46    23    51 1   
    47    24    25 ar  
    48    24    52 1   
    49    25    53 1   
    50    26    27 1   
    51    26    54 1   
    52    26    55 1   
    53    27    28 1   
    54    27    56 1   
    55    27    57 1   
    56    28    29 ar  
    57    28    33 ar  
    58    29    30 ar  
    59    30    31 ar  
    60    30    58 1   
    61    31    32 ar  
    62    31    59 1   
    63    32    33 ar  
    64    32    60 1   
    65    33    61 1   
@<TRIPOS>SUBSTRUCTURE
     1 PFR         1 TEMP              0 ****  ****    0 ROOT
