@<TRIPOS>MOLECULE
PFR
   61    65     1     0     0
SMALL
No Charge or Current Charge


@<TRIPOS>ATOM
      1 C1          -3.1600    -2.3420    -0.6370 ca         1 PFR       0.156100
      2 C2          -2.3500    -1.2460    -0.2640 ca         1 PFR       0.114100
      3 C3          -1.1060    -1.4820     0.3590 ca         1 PFR      -0.151000
      4 C4          -2.7120    -3.6600    -0.3890 ca         1 PFR      -0.190000
      5 C5          -1.4630    -3.8970     0.2140 ca         1 PFR       0.056000
      6 C6          -0.6480    -2.8000     0.5790 ca         1 PFR      -0.154000
      7 C7           0.6100    -3.0820     1.1750 ca         1 PFR       0.396900
      8 N8           1.0010    -4.3500     1.4070 nb         1 PFR      -0.274000
      9 C9           0.1510    -5.3230     1.0310 ca         1 PFR       0.154900
     10 N10         -1.0510    -5.1610     0.4450 nb         1 PFR      -0.200000
     11 O11         -4.3810    -2.0880    -1.2430 os         1 PFR      -0.317100
     12 O12         -2.7910     0.0410    -0.5290 os         1 PFR      -0.328100
     13 C13         -5.2720    -3.1370    -1.6600 c3         1 PFR       0.142900
     14 N14          1.5270    -2.0700     1.5490 nh         1 PFR      -0.784300
     15 C15          2.3850    -2.2160     2.7580 c6         1 PFR       0.215800
     16 C16          2.7230    -0.8260     3.3550 c6         1 PFR      -0.089400
     17 C17          3.3410     0.1210     2.2940 c6         1 PFR      -0.068400
     18 C18          2.4180     0.2120     1.0490 c6         1 PFR      -0.028400
     19 C19          2.1440    -1.2140     0.4960 c6         1 PFR       0.220800
     20 C20          2.9780     1.1510    -0.0290 ca         1 PFR      -0.079300
     21 C21          4.2010     0.8650    -0.6710 ca         1 PFR      -0.105500
     22 C22          4.7030     1.7290    -1.6610 ca         1 PFR      -0.109500
     23 C23          3.9860     2.8830    -2.0170 ca         1 PFR      -0.109000
     24 C24          2.7680     3.1740    -1.3820 ca         1 PFR      -0.109500
     25 C25          2.2650     2.3120    -0.3930 ca         1 PFR      -0.105500
     26 C26         -1.9450     1.1900    -0.3400 c3         1 PFR       0.160600
     27 C27         -2.7100     2.4310    -0.8220 c3         1 PFR      -0.127700
     28 C28         -1.8340     3.6690    -0.7740 ca         1 PFR       0.345300
     29 N29         -1.6840     4.2520     0.4380 nb         1 PFR      -0.675000
     30 C30         -0.8960     5.3500     0.5220 ca         1 PFR       0.340900
     31 C31         -0.2360     5.9030    -0.5890 ca         1 PFR      -0.164000
     32 C32         -0.3930     5.3000    -1.8480 ca         1 PFR      -0.075000
     33 C33         -1.2060     4.1590    -1.9360 ca         1 PFR      -0.155000
     34 H3          -0.4950    -0.6490     0.6830 ha         1 PFR       0.131000
     35 H4          -3.3200    -4.5160    -0.6630 ha         1 PFR       0.141000
     36 H9           0.4700    -6.3480     1.2160 h5         1 PFR       0.043100
     37 H13         -4.7910    -3.7840    -2.4040 h1         1 PFR       0.045033
     38 H13A        -5.5800    -3.7510    -0.8040 h1         1 PFR       0.045033
     39 H13B        -6.1750    -2.7100    -2.1130 h1         1 PFR       0.045033
     40 H15          1.8720    -2.8130     3.5270 h1         1 PFR       0.054700
     41 H15A         3.3170    -2.7410     2.5000 h1         1 PFR       0.054700
     42 H16          1.8080    -0.3750     3.7610 hc         1 PFR       0.050200
     43 H16A         3.4140    -0.9440     4.2010 hc         1 PFR       0.050200
     44 H17          3.4900     1.1200     2.7260 hc         1 PFR       0.045200
     45 H17A         4.3340    -0.2500     2.0060 hc         1 PFR       0.045200
     46 H18          1.4550     0.6190     1.3860 hc         1 PFR       0.061700
     47 H19          3.0860    -1.6660     0.1520 h1         1 PFR       0.050200
     48 H19A         1.4880    -1.1370    -0.3840 h1         1 PFR       0.050200
     49 H21          4.7670    -0.0250    -0.4060 ha         1 PFR       0.112500
     50 H22          5.6470     1.5020    -2.1520 ha         1 PFR       0.112500
     51 H23          4.3750     3.5510    -2.7830 ha         1 PFR       0.112000
     52 H24          2.2140     4.0690    -1.6560 ha         1 PFR       0.112500
     53 H25          1.3190     2.5510     0.0900 ha         1 PFR       0.112500
     54 H26         -1.6800     1.3110     0.7190 h1         1 PFR       0.044200
     55 H26A        -1.0210     1.0850    -0.9240 h1         1 PFR       0.044200
     56 H27         -3.0650     2.2600    -1.8450 hc         1 PFR       0.070700
     57 H27A        -3.6010     2.5710    -0.1990 hc         1 PFR       0.070700
     58 H30         -0.7910     5.7990     1.5090 h4         1 PFR       0.021100
     59 H31          0.3850     6.7860    -0.4690 ha         1 PFR       0.126000
     60 H32          0.1050     5.7030    -2.7280 ha         1 PFR       0.120000
     61 H33         -1.3480     3.6590    -2.8900 ha         1 PFR       0.126000
@<TRIPOS>BOND
     1     1     2 ar  
     2     1     4 ar  
     3     1    11 1   
     4     2     3 ar  
     5     2    12 1   
     6     3     6 ar  
     7     3    34 1   
     8     4     5 ar  
     9     4    35 1   
    10     5     6 ar  
    11     5    10 ar  
    12     6     7 ar  
    13     7     8 ar  
    14     7    14 1   
    15     8     9 ar  
    16     9    10 ar  
    17     9    36 1   
    18    11    13 1   
    19    12    26 1   
    20    13    37 1   
    21    13    38 1   
    22    13    39 1   
    23    14    15 1   
    24    14    19 1   
    25    15    16 1   
    26    15    40 1   
    27    15    41 1   
    28    16    17 1   
    29    16    42 1   
    30    16    43 1   
    31    17    18 1   
    32    17    44 1   
    33    17    45 1   
    34    18    19 1   
    35    18    20 1   
    36    18    46 1   
    37    19    47 1   
    38    19    48 1   
    39    20    21 ar  
    40    20    25 ar  
    41    21    22 ar  
    42    21    49 1   
    43    22    23 ar  
    44    22    50 1   
    45    23    24 ar  
    46    23    51 1   
    47    24    25 ar  
    48    24    52 1   
    49    25    53 1   
    50    26    27 1   
    51    26    54 1   
    52    26    55 1   
    53    27    28 1   
    54    27    56 1   
    55    27    57 1   
    56    28    29 ar  
    57    28    33 ar  
    58    29    30 ar  
    59    30    31 ar  
    60    30    58 1   
    61    31    32 ar  
    62    31    59 1   
    63    32    33 ar  
    64    32    60 1   
    65    33    61 1   
@<TRIPOS>SUBSTRUCTURE
     1 PFR         1 TEMP              0 ****  ****    0 ROOT
