@<TRIPOS>MOLECULE
PFT
   32    34     1     0     0
SMALL
abcg2


@<TRIPOS>ATOM
      1 N1           0.8050     0.6910     0.4240 n          1 PFT      -0.412800
      2 C2          -0.3970     1.2280     0.6710 c          1 PFT       0.637700
      3 C3           2.0290     1.4500     0.6590 c5         1 PFT       0.155800
      4 C4           1.0310    -0.6210    -0.1780 c5         1 PFT       0.155800
      5 C5          -1.5770     0.3550     0.3820 ca         1 PFT      -0.216600
      6 O6          -0.5300     2.3610     1.1180 o          1 PFT      -0.590100
      7 C7           3.0880     0.5080     0.1770 ca         1 PFT      -0.101300
      8 C8           2.5220    -0.6630    -0.2990 ca         1 PFT      -0.101300
      9 C9          -2.3180     0.5510    -0.7840 ca         1 PFT       0.209100
     10 C10         -1.9920    -0.6160     1.2810 ca         1 PFT      -0.006000
     11 C11          4.4620     0.6880     0.1650 ca         1 PFT      -0.090500
     12 C12          3.3160    -1.6830    -0.7990 ca         1 PFT      -0.090500
     13 C13         -3.4480    -0.2150    -1.0390 ca         1 PFT      -0.253000
     14 O14         -1.8770     1.4900    -1.6400 oh         1 PFT      -0.520100
     15 C15         -3.1210    -1.3860     1.0480 ca         1 PFT      -0.251000
     16 C16          5.2630    -0.3310    -0.3350 ca         1 PFT      -0.107500
     17 C17          4.6940    -1.5090    -0.8130 ca         1 PFT      -0.107500
     18 C18         -3.8510    -1.1810    -0.1200 ca         1 PFT       0.193100
     19 O19         -4.9560    -1.8880    -0.4160 oh         1 PFT      -0.530100
     20 H3           2.0250     2.3900     0.1010 h1         1 PFT       0.061950
     21 H2           2.1440     1.7000     1.7180 h1         1 PFT       0.061950
     22 H4           0.6510    -1.4290     0.4520 h1         1 PFT       0.061950
     23 H41          0.5390    -0.7080    -1.1510 h1         1 PFT       0.061950
     24 H10         -1.4250    -0.7790     2.1890 ha         1 PFT       0.122000
     25 H11          4.9060     1.6020     0.5390 ha         1 PFT       0.117500
     26 H12          2.8760    -2.6000    -1.1710 ha         1 PFT       0.117500
     27 H13         -4.0200    -0.0700    -1.9480 ha         1 PFT       0.133000
     28 HO14        -2.4450     1.5410    -2.4170 ho         1 PFT       0.470000
     29 H15         -3.4280    -2.1320     1.7710 ha         1 PFT       0.120000
     30 H16          6.3380    -0.2090    -0.3530 ha         1 PFT       0.114500
     31 H17          5.3300    -2.2950    -1.1980 ha         1 PFT       0.114500
     32 HO19        -5.1390    -2.5320     0.2770 ho         1 PFT       0.470000
@<TRIPOS>BOND
     1     1     2 1   
     2     1     3 1   
     3     1     4 1   
     4     2     5 1   
     5     2     6 2   
     6     3     7 1   
     7     3    20 1   
     8     3    21 1   
     9     4     8 1   
    10     4    22 1   
    11     4    23 1   
    12     5     9 ar  
    13     5    10 ar  
    14     7     8 ar  
    15     7    11 ar  
    16     8    12 ar  
    17     9    13 ar  
    18     9    14 1   
    19    10    15 ar  
    20    10    24 1   
    21    11    16 ar  
    22    11    25 1   
    23    12    17 ar  
    24    12    26 1   
    25    13    18 ar  
    26    13    27 1   
    27    14    28 1   
    28    15    18 ar  
    29    15    29 1   
    30    16    17 ar  
    31    16    30 1   
    32    17    31 1   
    33    18    19 1   
    34    19    32 1   
@<TRIPOS>SUBSTRUCTURE
     1 PFT         1 TEMP              0 ****  ****    0 ROOT
