@<TRIPOS>MOLECULE
PFT
   32    34     1     0     0
SMALL
No Charge or Current Charge


@<TRIPOS>ATOM
      1 N1           0.8370     0.6350     0.4940 n          1 PFT      -0.412800
      2 C2          -0.3950     1.2930     0.3170 c          1 PFT       0.637700
      3 C3           2.0900     1.4170     0.7580 c5         1 PFT       0.155800
      4 C4           1.0970    -0.7140    -0.1120 c5         1 PFT       0.155800
      5 C5          -1.6230     0.4360     0.1510 ca         1 PFT      -0.216600
      6 O6          -0.4740     2.5120     0.4220 o          1 PFT      -0.590100
      7 C7           3.1460     0.4580     0.2780 ca         1 PFT      -0.101300
      8 C8           2.5990    -0.7120    -0.2060 ca         1 PFT      -0.101300
      9 C9          -2.5960     0.7380    -0.8230 ca         1 PFT       0.209100
     10 C10         -1.8280    -0.6700     1.0050 ca         1 PFT      -0.006000
     11 C11          4.5360     0.6590     0.2830 ca         1 PFT      -0.090500
     12 C12          3.4160    -1.7390    -0.7070 ca         1 PFT      -0.090500
     13 C13         -3.7420    -0.0610    -0.9500 ca         1 PFT      -0.253000
     14 O14         -2.4250     1.7780    -1.6860 oh         1 PFT      -0.520100
     15 C15         -2.9790    -1.4650     0.8730 ca         1 PFT      -0.251000
     16 C16          5.3720    -0.3590    -0.2160 ca         1 PFT      -0.107500
     17 C17          4.8130    -1.5560    -0.7110 ca         1 PFT      -0.107500
     18 C18         -3.9310    -1.1590    -0.1050 ca         1 PFT       0.193100
     19 O19         -5.0460    -1.9250    -0.2370 oh         1 PFT      -0.530100
     20 H3           2.1220     2.3550     0.1880 h1         1 PFT       0.061950
     21 H2           2.2070     1.6430     1.8260 h1         1 PFT       0.061950
     22 H4           0.7480    -1.5310     0.5320 h1         1 PFT       0.061950
     23 H41          0.6350    -0.8140    -1.1030 h1         1 PFT       0.061950
     24 H10         -1.1070    -0.9030     1.7870 ha         1 PFT       0.122000
     25 H11          4.9600     1.5850     0.6640 ha         1 PFT       0.117500
     26 H12          2.9780    -2.6600    -1.0860 ha         1 PFT       0.117500
     27 H13         -4.4890     0.1610    -1.7070 ha         1 PFT       0.133000
     28 HO14        -3.2080     1.8190    -2.2740 ho         1 PFT       0.470000
     29 H15         -3.1230    -2.3120     1.5390 ha         1 PFT       0.120000
     30 H16          6.4510    -0.2210    -0.2210 ha         1 PFT       0.114500
     31 H17          5.4610    -2.3410    -1.0950 ha         1 PFT       0.114500
     32 HO19        -5.0050    -2.6390     0.4340 ho         1 PFT       0.470000
@<TRIPOS>BOND
     1     1     2 1   
     2     1     3 1   
     3     1     4 1   
     4     2     5 1   
     5     2     6 2   
     6     3     7 1   
     7     3    20 1   
     8     3    21 1   
     9     4     8 1   
    10     4    22 1   
    11     4    23 1   
    12     5     9 ar  
    13     5    10 ar  
    14     7     8 ar  
    15     7    11 ar  
    16     8    12 ar  
    17     9    13 ar  
    18     9    14 1   
    19    10    15 ar  
    20    10    24 1   
    21    11    16 ar  
    22    11    25 1   
    23    12    17 ar  
    24    12    26 1   
    25    13    18 ar  
    26    13    27 1   
    27    14    28 1   
    28    15    18 ar  
    29    15    29 1   
    30    16    17 ar  
    31    16    30 1   
    32    17    31 1   
    33    18    19 1   
    34    19    32 1   
@<TRIPOS>SUBSTRUCTURE
     1 PFT         1 TEMP              0 ****  ****    0 ROOT
