@<TRIPOS>MOLECULE
PFV
   66    67     1     0     0
SMALL
bcc


@<TRIPOS>ATOM
      1 C36          3.6440    -1.2300     1.7100 c          1 PFV       0.795100
      2 C34          6.0960    -1.0230     1.6600 c3         1 PFV       0.159200
      3 C6          -4.0110     0.2370    -0.5200 ce         1 PFV       0.243300
      4 C9          -3.8250     1.6770    -0.7210 cc         1 PFV       0.391000
      5 O15         -5.2280    -1.5890    -0.6280 os         1 PFV      -0.115300
      6 C18         -7.6040    -1.4460    -0.1180 c3         1 PFV      -0.084100
      7 C16         -6.5290    -2.0930    -0.9860 c3         1 PFV       0.011800
      8 C19         -6.7960    -1.8400    -2.4660 c3         1 PFV      -0.084100
      9 C26          7.9510     0.0790     0.3700 cc         1 PFV      -0.338200
     10 O37          3.6680    -2.4350     1.9380 o          1 PFV      -0.692100
     11 N35          4.7740    -0.4680     1.6370 ns         1 PFV      -0.598900
     12 C27          6.8600    -0.7480     0.3920 cd         1 PFV       0.137800
     13 N28          6.4560    -1.3150    -0.7590 na         1 PFV      -0.255700
     14 O38          5.3460    -2.0970    -0.7710 oh         1 PFV      -0.298300
     15 C29          7.0680    -1.0870    -1.9550 cc         1 PFV       0.018000
     16 C30          8.1520    -0.2770    -2.0150 cd         1 PFV      -0.045100
     17 O33          8.7810    -0.0390    -3.1750 oh         1 PFV      -0.492100
     18 C31          8.6750     0.3670    -0.8240 c          1 PFV       0.548500
     19 O32          9.6720     1.1050    -0.9160 o          1 PFV      -0.632100
     20 N4           2.4950    -0.5320     1.5480 ns         1 PFV      -0.587900
     21 C3           1.2190    -1.1960     1.5360 c3         1 PFV       0.079000
     22 C2           0.0740    -0.1830     1.5470 c3         1 PFV       0.209500
     23 N1           0.0090     0.6200     0.3520 n7         1 PFV      -0.848100
     24 S22          0.6370     2.1790     0.3260 s6         1 PFV       1.378700
     25 O25          0.0310     2.8490     1.4900 o          1 PFV      -0.712533
     26 O24          2.1120     2.0870     0.4740 o          1 PFV      -0.712533
     27 O23          0.2400     2.6950    -0.9830 o          1 PFV      -0.712533
     28 CA          -1.2690    -0.9660     1.7540 c3         1 PFV      -0.011300
     29 C           -1.4680    -1.2240     3.2270 c          1 PFV       0.570900
     30 O           -2.4690    -0.9540     3.8360 o          1 PFV      -0.511100
     31 N           -2.4220    -0.3330     1.1960 ns         1 PFV      -0.509900
     32 C5          -2.8300    -0.5890    -0.0580 c          1 PFV       0.605800
     33 O7          -2.3380    -1.4290    -0.7890 o          1 PFV      -0.592100
     34 N8          -5.1440    -0.2610    -0.8160 n2         1 PFV      -0.392200
     35 C17         -6.4860    -3.6190    -0.7050 c          1 PFV       0.942600
     36 O21         -5.4560    -4.0940    -0.2030 o          1 PFV      -0.820300
     37 O20         -7.5270    -4.2310    -1.0140 o          1 PFV      -0.820300
     38 N13         -3.0300     2.3580     0.1550 nc         1 PFV      -0.713000
     39 C12         -2.9400     3.6100    -0.1660 cd         1 PFV       0.737300
     40 N14         -2.2390     4.5240     0.5440 nv         1 PFV      -0.923500
     41 S11         -3.8690     4.0480    -1.5790 ss         1 PFV      -0.354300
     42 C10         -4.3790     2.4050    -1.7230 cd         1 PFV      -0.188400
     43 H1           6.6780    -0.6040     2.4840 h1         1 PFV       0.066200
     44 H2           6.0200    -2.0940     1.8440 h1         1 PFV       0.066200
     45 H3          -7.6500    -0.3680    -0.2810 hc         1 PFV       0.025200
     46 H4          -8.5770    -1.8650    -0.3660 hc         1 PFV       0.025200
     47 H5          -7.4210    -1.6250     0.9430 hc         1 PFV       0.025200
     48 H6          -6.0130    -2.2760    -3.0910 hc         1 PFV       0.025200
     49 H7          -7.7430    -2.2920    -2.7510 hc         1 PFV       0.025200
     50 H8          -6.8510    -0.7720    -2.6840 hc         1 PFV       0.025200
     51 H9           8.2690     0.5330     1.3000 ha         1 PFV       0.158000
     52 H10          4.6930     0.5280     1.5090 hn         1 PFV       0.339500
     53 H11          5.6450    -3.0070    -0.6260 ho         1 PFV       0.414000
     54 H12          6.6450    -1.5850    -2.8160 h4         1 PFV       0.179000
     55 H13          9.5150     0.5630    -2.9700 ho         1 PFV       0.448000
     56 H14          2.5260     0.4110     1.1630 hn         1 PFV       0.373500
     57 H15          1.0960    -1.8410     0.6550 h1         1 PFV       0.045200
     58 H16          1.1370    -1.8510     2.4070 h1         1 PFV       0.045200
     59 H17          0.2080     0.5000     2.3920 h1         1 PFV       0.072700
     60 H18          0.1870     0.1180    -0.5100 hn         1 PFV       0.412800
     61 H19         -1.1570    -1.9480     1.2800 h1         1 PFV       0.095700
     62 H20         -0.6020    -1.6850     3.7320 h4         1 PFV      -0.031800
     63 H21         -2.7190     0.5430     1.6030 hn         1 PFV       0.343500
     64 H23         -1.4370     4.1150     1.0190 hn         1 PFV       0.430800
     65 H24         -2.0300     5.3970     0.0880 hn         1 PFV       0.430800
     66 H25         -5.0170     2.0760    -2.5280 h4         1 PFV       0.178000
@<TRIPOS>BOND
     1     1    10 2   
     2     1    11 1   
     3     1    20 1   
     4     2    11 1   
     5     2    12 1   
     6     2    43 1   
     7     2    44 1   
     8     3     4 1   
     9     3    32 1   
    10     3    34 2   
    11     4    38 1   
    12     4    42 2   
    13     5     7 1   
    14     5    34 1   
    15     6     7 1   
    16     6    45 1   
    17     6    46 1   
    18     6    47 1   
    19     7     8 1   
    20     7    35 1   
    21     8    48 1   
    22     8    49 1   
    23     8    50 1   
    24     9    12 2   
    25     9    18 1   
    26     9    51 1   
    27    11    52 1   
    28    12    13 1   
    29    13    14 1   
    30    13    15 1   
    31    14    53 1   
    32    15    16 2   
    33    15    54 1   
    34    16    17 1   
    35    16    18 1   
    36    17    55 1   
    37    18    19 2   
    38    20    21 1   
    39    20    56 1   
    40    21    22 1   
    41    21    57 1   
    42    21    58 1   
    43    22    23 1   
    44    22    28 1   
    45    22    59 1   
    46    23    24 1   
    47    23    60 1   
    48    24    25 1   
    49    24    26 1   
    50    24    27 1   
    51    28    29 1   
    52    28    31 1   
    53    28    61 1   
    54    29    30 2   
    55    29    62 1   
    56    31    32 1   
    57    31    63 1   
    58    32    33 2   
    59    35    36 1   
    60    35    37 1   
    61    38    39 2   
    62    39    40 1   
    63    39    41 1   
    64    40    64 1   
    65    40    65 1   
    66    41    42 1   
    67    42    66 1   
@<TRIPOS>SUBSTRUCTURE
     1 PFV         1 TEMP              0 ****  ****    0 ROOT
