@<TRIPOS>MOLECULE
PFV
   66    67     1     0     0
SMALL
No Charge or Current Charge


@<TRIPOS>ATOM
      1 C36          4.0870    -2.0150     0.8210 c          1 PFV       0.661100
      2 C34          6.5480    -1.6050     0.6900 c3         1 PFV       0.159200
      3 C6          -4.5170    -0.3020     0.0590 ce         1 PFV       0.243300
      4 C9          -4.2290     1.1360    -0.2010 cc         1 PFV       0.325700
      5 O15         -6.7870    -0.2650     0.2970 os         1 PFV      -0.237000
      6 C18         -8.2130    -0.5520    -1.6780 c3         1 PFV      -0.084100
      7 C16         -8.0570    -0.8380    -0.1530 c3         1 PFV       0.035000
      8 C19         -8.0390    -2.3680     0.1470 c3         1 PFV      -0.084100
      9 C26          8.0280     0.3270     1.4290 cc         1 PFV      -0.388200
     10 O37          4.1960    -3.0640     1.4320 o          1 PFV      -0.692100
     11 N35          5.1480    -1.2550     0.4340 ns         1 PFV      -0.531900
     12 C27          7.4950    -0.4470     0.4220 cd         1 PFV       0.137800
     13 N28          7.8730    -0.0780    -0.9000 na         1 PFV      -0.255700
     14 O38          7.3300    -0.8670    -1.9260 oh         1 PFV      -0.337300
     15 C29          8.7160     0.9950    -1.2560 cc         1 PFV      -0.032000
     16 C30          9.2250     1.7300    -0.2070 cd         1 PFV      -0.045100
     17 O33         10.0580     2.7910    -0.4000 oh         1 PFV      -0.531100
     18 C31          8.9150     1.4440     1.2090 c          1 PFV       0.548500
     19 O32          9.3750     2.1080     2.1320 o          1 PFV      -0.632100
     20 N4           2.8940    -1.4760     0.4510 ns         1 PFV      -0.520900
     21 C3           1.5810    -2.0610     0.7280 c3         1 PFV       0.079000
     22 C2           0.3990    -1.0540     0.5630 c3         1 PFV       0.209500
     23 N1           0.3380    -0.5090    -0.8190 n7         1 PFV      -0.903300
     24 S22          0.9280     0.9900    -1.1560 s6         1 PFV       1.378700
     25 O25          0.3160     1.8200    -0.1170 o          1 PFV      -0.712533
     26 O24          2.3670     0.7670    -1.0400 o          1 PFV      -0.712533
     27 O23          0.4160     1.2020    -2.5080 o          1 PFV      -0.712533
     28 CA          -0.9640    -1.7200     0.9030 c3         1 PFV      -0.011300
     29 C           -1.0150    -2.1290     2.3940 c          1 PFV       0.570900
     30 O           -1.4770    -1.4290     3.2910 o          1 PFV      -0.511100
     31 N           -2.1280    -0.8720     0.5420 ns         1 PFV      -0.442900
     32 C5          -3.4520    -1.2780     0.5600 c          1 PFV       0.538800
     33 O7          -3.7170    -2.4290     0.9050 o          1 PFV      -0.592100
     34 N8          -5.6460    -0.8160    -0.3460 n2         1 PFV      -0.293700
     35 C17         -9.2530    -0.1670     0.6300 c          1 PFV       0.732000
     36 O21         -9.0150     0.6900     1.4740 o          1 PFV      -0.715000
     37 O20        -10.3980    -0.5230     0.3700 o          1 PFV      -0.715000
     38 N13         -3.0440     1.7080     0.2150 nc         1 PFV      -0.713000
     39 C12         -3.0060     2.9640    -0.1180 cd         1 PFV       0.737300
     40 N14         -1.8730     3.6120     0.1260 nv         1 PFV      -1.033900
     41 S11         -4.3750     3.6280    -0.9700 ss         1 PFV      -0.209400
     42 C10         -5.0710     2.0200    -0.8550 cd         1 PFV      -0.250000
     43 H1           6.6490    -1.9110     1.7400 h1         1 PFV       0.066200
     44 H2           6.8230    -2.4670     0.0690 h1         1 PFV       0.066200
     45 H3          -7.4390    -1.0530    -2.2710 hc         1 PFV       0.025200
     46 H4          -9.1820    -0.9120    -2.0420 hc         1 PFV       0.025200
     47 H5          -8.1590     0.5250    -1.8760 hc         1 PFV       0.025200
     48 H6          -7.8410    -2.5500     1.2100 hc         1 PFV       0.025200
     49 H7          -9.0060    -2.8220    -0.0990 hc         1 PFV       0.025200
     50 H8          -7.2780    -2.8930    -0.4430 hc         1 PFV       0.025200
     51 H9           7.7970     0.1300     2.4680 ha         1 PFV       0.208000
     52 H10          4.9540    -0.4100    -0.0880 hn         1 PFV       0.339500
     53 H11          7.9910    -1.5640    -2.1360 ho         1 PFV       0.453000
     54 H12          8.9160     1.1790    -2.3070 h4         1 PFV       0.229000
     55 H13         10.2720     3.1390     0.5000 ho         1 PFV       0.487000
     56 H14          2.9220    -0.5900    -0.0530 hn         1 PFV       0.373500
     57 H15          1.4330    -2.9150     0.0540 h1         1 PFV       0.045200
     58 H16          1.5900    -2.4430     1.7570 h1         1 PFV       0.045200
     59 H17          0.5480    -0.2420     1.2900 h1         1 PFV       0.072700
     60 H18          0.9790    -1.0250    -1.4080 hn         1 PFV       0.468000
     61 H19         -1.0410    -2.6490     0.3250 h1         1 PFV       0.095700
     62 H20         -0.5970    -3.1350     2.6200 h4         1 PFV      -0.031800
     63 H21         -1.9500     0.0850     0.2370 hn         1 PFV       0.343500
     64 H23         -1.0760     2.9720     0.1820 hn         1 PFV       0.486000
     65 H24         -1.7100     4.4370    -0.4330 hn         1 PFV       0.486000
     66 H25         -6.0490     1.8130    -1.2710 h4         1 PFV       0.160000
@<TRIPOS>BOND
     1     1    10 2   
     2     1    11 1   
     3     1    20 1   
     4     2    11 1   
     5     2    12 1   
     6     2    43 1   
     7     2    44 1   
     8     3     4 1   
     9     3    32 1   
    10     3    34 2   
    11     4    38 1   
    12     4    42 2   
    13     5     7 1   
    14     5    34 1   
    15     6     7 1   
    16     6    45 1   
    17     6    46 1   
    18     6    47 1   
    19     7     8 1   
    20     7    35 1   
    21     8    48 1   
    22     8    49 1   
    23     8    50 1   
    24     9    12 2   
    25     9    18 1   
    26     9    51 1   
    27    11    52 1   
    28    12    13 1   
    29    13    14 1   
    30    13    15 1   
    31    14    53 1   
    32    15    16 2   
    33    15    54 1   
    34    16    17 1   
    35    16    18 1   
    36    17    55 1   
    37    18    19 2   
    38    20    21 1   
    39    20    56 1   
    40    21    22 1   
    41    21    57 1   
    42    21    58 1   
    43    22    23 1   
    44    22    28 1   
    45    22    59 1   
    46    23    24 1   
    47    23    60 1   
    48    24    25 1   
    49    24    26 1   
    50    24    27 1   
    51    28    29 1   
    52    28    31 1   
    53    28    61 1   
    54    29    30 2   
    55    29    62 1   
    56    31    32 1   
    57    31    63 1   
    58    32    33 2   
    59    35    36 1   
    60    35    37 1   
    61    38    39 2   
    62    39    40 1   
    63    39    41 1   
    64    40    64 1   
    65    40    65 1   
    66    41    42 1   
    67    42    66 1   
@<TRIPOS>SUBSTRUCTURE
     1 PFV         1 TEMP              0 ****  ****    0 ROOT
