@<TRIPOS>MOLECULE
PFW
   67    72     1     0     0
SMALL
abcg2


@<TRIPOS>ATOM
      1 C1          -2.5400    -3.3810     0.7740 ca         1 PFW       0.154100
      2 C2          -1.5320    -2.4330     0.4080 ca         1 PFW       0.116100
      3 C3          -1.8600    -1.3590    -0.3730 ca         1 PFW      -0.150000
      4 C4          -3.8170    -3.2360     0.2990 ca         1 PFW      -0.190000
      5 C5          -4.1590    -2.1420    -0.5250 ca         1 PFW       0.055000
      6 C6          -3.1900    -1.1640    -0.8140 ca         1 PFW      -0.152000
      7 C7          -3.6300    -0.0610    -1.6130 ca         1 PFW       0.395900
      8 N8          -4.8270    -0.0860    -2.1710 nb         1 PFW      -0.275000
      9 C9          -5.6400    -1.1050    -1.8710 ca         1 PFW       0.154900
     10 N10         -5.4080    -2.0920    -1.0530 nb         1 PFW      -0.201000
     11 N11         -2.8210     1.0090    -1.8590 nh         1 PFW      -0.783300
     12 C12         -3.1060     1.8880    -2.9820 c6         1 PFW       0.214800
     13 C13         -1.7940     2.4440    -3.5210 c6         1 PFW      -0.088400
     14 C14         -0.9870     3.1480    -2.4360 c6         1 PFW      -0.069400
     15 C15         -0.7870     2.2310    -1.2270 c6         1 PFW      -0.026400
     16 C16         -2.1460     1.7020    -0.7690 c6         1 PFW       0.219800
     17 C17         -0.0630     2.8960    -0.0850 ca         1 PFW      -0.083300
     18 C18         -0.5110     4.0980     0.4610 ca         1 PFW      -0.107000
     19 C19          0.1550     4.6860     1.5280 ca         1 PFW      -0.109500
     20 C20          1.2850     4.0830     2.0670 ca         1 PFW      -0.109000
     21 C21          1.7400     2.8860     1.5320 ca         1 PFW      -0.109500
     22 C22          1.0680     2.3000     0.4680 ca         1 PFW      -0.107000
     23 O23         -2.1150    -4.3750     1.5570 os         1 PFW      -0.318100
     24 O24         -0.3080    -2.7080     0.8830 os         1 PFW      -0.336100
     25 C25         -3.0540    -5.3530     1.9680 c3         1 PFW       0.142900
     26 C26          0.7380    -1.7760     0.6560 c3         1 PFW       0.168600
     27 C27          1.9470    -2.2890     1.4130 c3         1 PFW      -0.134700
     28 C28          3.1340    -1.3720     1.3360 ca         1 PFW       0.374300
     29 N29          3.1900    -0.5030     0.3620 nb         1 PFW      -0.686000
     30 C30          5.2430    -0.6700     2.2410 ca         1 PFW      -0.056000
     31 C31          4.1580    -1.4910     2.3110 ca         1 PFW      -0.162000
     32 C32          5.3290     0.2810     1.1990 ca         1 PFW      -0.087000
     33 C33          4.2630     0.3220     0.2680 ca         1 PFW       0.274000
     34 C34          4.3160     1.2530    -0.7920 ca         1 PFW      -0.085000
     35 C35          5.3820     2.1050    -0.9110 ca         1 PFW      -0.097000
     36 C36          6.4400     2.0680     0.0200 ca         1 PFW      -0.106000
     37 C37          6.4150     1.1720     1.0550 ca         1 PFW      -0.090000
     38 H3          -1.0900    -0.6730    -0.6940 ha         1 PFW       0.133000
     39 H4          -4.5920    -3.9570     0.5210 ha         1 PFW       0.140000
     40 H9          -6.6140    -1.0820    -2.3510 h5         1 PFW       0.042100
     41 H12         -3.6250     1.3270    -3.7560 h1         1 PFW       0.054200
     42 H12A        -3.7690     2.7080    -2.6750 h1         1 PFW       0.054200
     43 H13         -1.2090     1.6220    -3.9420 hc         1 PFW       0.049700
     44 H13A        -2.0090     3.1350    -4.3390 hc         1 PFW       0.049700
     45 H14         -0.0180     3.4680    -2.8260 hc         1 PFW       0.044700
     46 H14A        -1.5140     4.0550    -2.1240 hc         1 PFW       0.044700
     47 H15         -0.1910     1.3690    -1.5530 hc         1 PFW       0.062700
     48 H16         -2.7740     2.5450    -0.4460 h1         1 PFW       0.050200
     49 H16A        -2.0410     1.0530     0.0960 h1         1 PFW       0.050200
     50 H18         -1.3880     4.5890     0.0550 ha         1 PFW       0.117500
     51 H19         -0.2080     5.6200     1.9380 ha         1 PFW       0.113000
     52 H20          1.8070     4.5450     2.8950 ha         1 PFW       0.112000
     53 H21          2.6220     2.4050     1.9380 ha         1 PFW       0.113000
     54 H22          1.4330     1.3630     0.0620 ha         1 PFW       0.117500
     55 H25         -3.8700    -4.9120     2.5440 h1         1 PFW       0.044700
     56 H25A        -3.4720    -5.8960     1.1160 h1         1 PFW       0.044700
     57 H25B        -2.5120    -6.0520     2.5990 h1         1 PFW       0.044700
     58 H26          0.9510    -1.6890    -0.4130 h1         1 PFW       0.048700
     59 H26A         0.4500    -0.7850     1.0240 h1         1 PFW       0.048700
     60 H27          1.6830    -2.4440     2.4620 hc         1 PFW       0.070700
     61 H27A         2.2380    -3.2710     1.0230 hc         1 PFW       0.070700
     62 H30          6.0370    -0.7360     2.9750 ha         1 PFW       0.121000
     63 H31          4.0630    -2.2260     3.0980 ha         1 PFW       0.126000
     64 H34          3.5020     1.2740    -1.5040 ha         1 PFW       0.130000
     65 H35          5.4150     2.8160    -1.7270 ha         1 PFW       0.118000
     66 H36          7.2730     2.7490    -0.0900 ha         1 PFW       0.117000
     67 H37          7.2260     1.1350     1.7720 ha         1 PFW       0.116000
@<TRIPOS>BOND
     1     1     2 ar  
     2     1     4 ar  
     3     1    23 1   
     4     2     3 ar  
     5     2    24 1   
     6     3     6 ar  
     7     3    38 1   
     8     4     5 ar  
     9     4    39 1   
    10     5     6 ar  
    11     5    10 ar  
    12     6     7 ar  
    13     7     8 ar  
    14     7    11 1   
    15     8     9 ar  
    16     9    10 ar  
    17     9    40 1   
    18    11    12 1   
    19    11    16 1   
    20    12    13 1   
    21    12    41 1   
    22    12    42 1   
    23    13    14 1   
    24    13    43 1   
    25    13    44 1   
    26    14    15 1   
    27    14    45 1   
    28    14    46 1   
    29    15    16 1   
    30    15    17 1   
    31    15    47 1   
    32    16    48 1   
    33    16    49 1   
    34    17    18 ar  
    35    17    22 ar  
    36    18    19 ar  
    37    18    50 1   
    38    19    20 ar  
    39    19    51 1   
    40    20    21 ar  
    41    20    52 1   
    42    21    22 ar  
    43    21    53 1   
    44    22    54 1   
    45    23    25 1   
    46    24    26 1   
    47    25    55 1   
    48    25    56 1   
    49    25    57 1   
    50    26    27 1   
    51    26    58 1   
    52    26    59 1   
    53    27    28 1   
    54    27    60 1   
    55    27    61 1   
    56    28    29 ar  
    57    28    31 ar  
    58    29    33 ar  
    59    30    31 ar  
    60    30    32 ar  
    61    30    62 1   
    62    31    63 1   
    63    32    33 ar  
    64    32    37 ar  
    65    33    34 ar  
    66    34    35 ar  
    67    34    64 1   
    68    35    36 ar  
    69    35    65 1   
    70    36    37 ar  
    71    36    66 1   
    72    37    67 1   
@<TRIPOS>SUBSTRUCTURE
     1 PFW         1 TEMP              0 ****  ****    0 ROOT
