@<TRIPOS>MOLECULE
PFW
   67    72     1     0     0
SMALL
No Charge or Current Charge


@<TRIPOS>ATOM
      1 C1          -2.5770    -3.6160     0.6130 ca         1 PFW       0.154100
      2 C2          -1.5870    -2.6640     0.2770 ca         1 PFW       0.116100
      3 C3          -1.9610    -1.4800    -0.3920 ca         1 PFW      -0.150000
      4 C4          -3.9280    -3.3640     0.2840 ca         1 PFW      -0.190000
      5 C5          -4.3060    -2.1740    -0.3630 ca         1 PFW       0.055000
      6 C6          -3.3150    -1.2180    -0.6930 ca         1 PFW      -0.152000
      7 C7          -3.7380    -0.0240    -1.3370 ca         1 PFW       0.395900
      8 N8          -5.0340     0.1780    -1.6440 nb         1 PFW      -0.275000
      9 C9          -5.8970    -0.7930    -1.2960 ca         1 PFW       0.154900
     10 N10         -5.6000    -1.9490    -0.6700 nb         1 PFW      -0.201000
     11 N11         -2.8450     1.0180    -1.6880 nh         1 PFW      -0.783300
     12 C12         -3.0480     1.8200    -2.9280 c6         1 PFW       0.214800
     13 C13         -1.6890     2.3340    -3.4700 c6         1 PFW      -0.088400
     14 C14         -0.8910     3.1010    -2.3850 c6         1 PFW      -0.069400
     15 C15         -0.7350     2.2290    -1.1100 c6         1 PFW      -0.026400
     16 C16         -2.1350     1.7710    -0.6150 c6         1 PFW       0.219800
     17 C17          0.0660     2.9400    -0.0090 ca         1 PFW      -0.083300
     18 C18         -0.4200     4.1190     0.5920 ca         1 PFW      -0.107000
     19 C19          0.3200     4.7580     1.6020 ca         1 PFW      -0.109500
     20 C20          1.5500     4.2240     2.0190 ca         1 PFW      -0.109000
     21 C21          2.0410     3.0510     1.4250 ca         1 PFW      -0.109500
     22 C22          1.3020     2.4100     0.4150 ca         1 PFW      -0.107000
     23 O23         -2.1870    -4.7760     1.2640 os         1 PFW      -0.318100
     24 O24         -0.2670    -2.9090     0.6250 os         1 PFW      -0.336100
     25 C25         -3.1220    -5.8000     1.6480 c3         1 PFW       0.142900
     26 C26          0.7450    -1.8930     0.5140 c3         1 PFW       0.168600
     27 C27          2.0570    -2.4510     1.0870 c3         1 PFW      -0.134700
     28 C28          3.1200    -1.3710     1.1850 ca         1 PFW       0.374300
     29 N29          3.5570    -0.8540     0.0140 nb         1 PFW      -0.686000
     30 C30          4.5550     0.0910     2.4760 ca         1 PFW      -0.056000
     31 C31          3.5930    -0.9290     2.4320 ca         1 PFW      -0.162000
     32 C32          5.0040     0.6360     1.2610 ca         1 PFW      -0.087000
     33 C33          4.4800     0.1360     0.0410 ca         1 PFW       0.274000
     34 C34          4.9340     0.6990    -1.1660 ca         1 PFW      -0.085000
     35 C35          5.8870     1.7340    -1.1690 ca         1 PFW      -0.097000
     36 C36          6.3990     2.2200     0.0450 ca         1 PFW      -0.106000
     37 C37          5.9590     1.6710     1.2600 ca         1 PFW      -0.090000
     38 H3          -1.2050    -0.7640    -0.6900 ha         1 PFW       0.133000
     39 H4          -4.7050    -4.0830     0.5290 ha         1 PFW       0.140000
     40 H9          -6.9450    -0.6270    -1.5420 h5         1 PFW       0.042100
     41 H12         -3.5280     1.2110    -3.7080 h1         1 PFW       0.054200
     42 H12A        -3.7080     2.6750    -2.7220 h1         1 PFW       0.054200
     43 H13         -1.0960     1.4820    -3.8270 hc         1 PFW       0.049700
     44 H13A        -1.8590     2.9820    -4.3400 hc         1 PFW       0.049700
     45 H14          0.0980     3.3790    -2.7740 hc         1 PFW       0.044700
     46 H14A        -1.4090     4.0400    -2.1430 hc         1 PFW       0.044700
     47 H15         -0.1830     1.3250    -1.4000 hc         1 PFW       0.062700
     48 H16         -2.7290     2.6490    -0.3210 h1         1 PFW       0.050200
     49 H16A        -2.0130     1.1530     0.2860 h1         1 PFW       0.050200
     50 H18         -1.3710     4.5450     0.2790 ha         1 PFW       0.117500
     51 H19         -0.0610     5.6680     2.0620 ha         1 PFW       0.113000
     52 H20          2.1230     4.7200     2.8010 ha         1 PFW       0.112000
     53 H21          2.9940     2.6380     1.7470 ha         1 PFW       0.113000
     54 H22          1.6960     1.5020    -0.0370 ha         1 PFW       0.117500
     55 H25         -3.8710    -5.4020     2.3440 h1         1 PFW       0.044700
     56 H25A        -3.6360    -6.2080     0.7690 h1         1 PFW       0.044700
     57 H25B        -2.5980    -6.6240     2.1470 h1         1 PFW       0.044700
     58 H26          0.8970    -1.6030    -0.5350 h1         1 PFW       0.048700
     59 H26A         0.4540    -1.0000     1.0850 h1         1 PFW       0.048700
     60 H27          1.8610    -2.8810     2.0760 hc         1 PFW       0.070700
     61 H27A         2.4100    -3.2700     0.4510 hc         1 PFW       0.070700
     62 H30          4.9350     0.4520     3.4290 ha         1 PFW       0.121000
     63 H31          3.2160    -1.3660     3.3520 ha         1 PFW       0.126000
     64 H34          4.5410     0.3290    -2.1090 ha         1 PFW       0.130000
     65 H35          6.2260     2.1590    -2.1110 ha         1 PFW       0.118000
     66 H36          7.1350     3.0210     0.0440 ha         1 PFW       0.117000
     67 H37          6.3580     2.0530     2.1980 ha         1 PFW       0.116000
@<TRIPOS>BOND
     1     1     2 ar  
     2     1     4 ar  
     3     1    23 1   
     4     2     3 ar  
     5     2    24 1   
     6     3     6 ar  
     7     3    38 1   
     8     4     5 ar  
     9     4    39 1   
    10     5     6 ar  
    11     5    10 ar  
    12     6     7 ar  
    13     7     8 ar  
    14     7    11 1   
    15     8     9 ar  
    16     9    10 ar  
    17     9    40 1   
    18    11    12 1   
    19    11    16 1   
    20    12    13 1   
    21    12    41 1   
    22    12    42 1   
    23    13    14 1   
    24    13    43 1   
    25    13    44 1   
    26    14    15 1   
    27    14    45 1   
    28    14    46 1   
    29    15    16 1   
    30    15    17 1   
    31    15    47 1   
    32    16    48 1   
    33    16    49 1   
    34    17    18 ar  
    35    17    22 ar  
    36    18    19 ar  
    37    18    50 1   
    38    19    20 ar  
    39    19    51 1   
    40    20    21 ar  
    41    20    52 1   
    42    21    22 ar  
    43    21    53 1   
    44    22    54 1   
    45    23    25 1   
    46    24    26 1   
    47    25    55 1   
    48    25    56 1   
    49    25    57 1   
    50    26    27 1   
    51    26    58 1   
    52    26    59 1   
    53    27    28 1   
    54    27    60 1   
    55    27    61 1   
    56    28    29 ar  
    57    28    31 ar  
    58    29    33 ar  
    59    30    31 ar  
    60    30    32 ar  
    61    30    62 1   
    62    31    63 1   
    63    32    33 ar  
    64    32    37 ar  
    65    33    34 ar  
    66    34    35 ar  
    67    34    64 1   
    68    35    36 ar  
    69    35    65 1   
    70    36    37 ar  
    71    36    66 1   
    72    37    67 1   
@<TRIPOS>SUBSTRUCTURE
     1 PFW         1 TEMP              0 ****  ****    0 ROOT
