@<TRIPOS>MOLECULE
PFX
   23    22     1     0     0
SMALL
No Charge or Current Charge


@<TRIPOS>ATOM
      1 NH          -3.7950    11.1260   -10.4600 n8         1 PFX      -1.001200
      2 C1          -3.8950    10.1770    -9.3200 c3         1 PFX       0.142800
      3 C2          -5.2630    10.2340    -8.5880 c3         1 PFX       0.164600
      4 O3          -5.2430     9.2690    -7.5190 os         1 PFX      -0.471000
      5 C4          -6.4570     9.2110    -6.7460 c3         1 PFX       0.117600
      6 C5          -6.2790     8.1390    -5.6410 c3         1 PFX       0.158600
      7 O6          -7.3960     8.1750    -4.7230 os         1 PFX      -0.416000
      8 C7          -8.6760     7.7390    -5.2570 c3         1 PFX       0.001600
      9 C           -9.8210     7.6740    -4.1910 c          1 PFX       0.726000
     10 O          -10.9280     7.3140    -4.5700 o          1 PFX      -0.722500
     11 H1          -2.8870    10.9970   -10.9240 hn         1 PFX       0.388500
     12 H2          -4.4740    10.8540   -11.1830 hn         1 PFX       0.388500
     13 H3          -3.7300     9.1580    -9.6980 h1         1 PFX       0.037700
     14 H4          -3.0950    10.4100    -8.6030 h1         1 PFX       0.037700
     15 H5          -5.4260    11.2450    -8.1920 h1         1 PFX       0.023700
     16 H6          -6.0690    10.0050    -9.2980 h1         1 PFX       0.023700
     17 H7          -6.6620    10.1840    -6.2800 h1         1 PFX       0.027700
     18 H8          -7.3050     8.9460    -7.3910 h1         1 PFX       0.027700
     19 H9          -6.1840     7.1460    -6.1010 h1         1 PFX       0.034200
     20 H10         -5.3490     8.3480    -5.0960 h1         1 PFX       0.034200
     21 H11         -9.0080     8.4200    -6.0510 h1         1 PFX       0.000700
     22 H12         -8.5750     6.7380    -5.6970 h1         1 PFX       0.000700
     23 OXT         -9.5850     7.9780    -3.0270 o          1 PFX      -0.722500
@<TRIPOS>BOND
     1     1     2 1   
     2     1    11 1   
     3     1    12 1   
     4     2     3 1   
     5     2    13 1   
     6     2    14 1   
     7     3     4 1   
     8     3    15 1   
     9     3    16 1   
    10     4     5 1   
    11     5     6 1   
    12     5    17 1   
    13     5    18 1   
    14     6     7 1   
    15     6    19 1   
    16     6    20 1   
    17     7     8 1   
    18     8     9 1   
    19     8    21 1   
    20     8    22 1   
    21     9    10 1   
    22     9    23 1   
@<TRIPOS>SUBSTRUCTURE
     1 PFX         1 TEMP              0 ****  ****    0 ROOT
