@<TRIPOS>MOLECULE
PFX
   23    22     1     0     0
SMALL
bcc


@<TRIPOS>ATOM
      1 NH          -3.8370    10.9960   -10.3950 n8         1 PFX      -0.890800
      2 C1          -3.9050    10.0490    -9.2930 c3         1 PFX       0.142800
      3 C2          -5.2400    10.1920    -8.5850 c3         1 PFX       0.141400
      4 O3          -5.2990     9.2630    -7.5330 os         1 PFX      -0.424600
      5 C4          -6.4800     9.3470    -6.7780 c3         1 PFX       0.094400
      6 C5          -6.3940     8.2870    -5.6870 c3         1 PFX       0.135400
      7 O6          -7.4600     8.3320    -4.7790 os         1 PFX      -0.369600
      8 C7          -8.6830     7.8530    -5.2870 c3         1 PFX      -0.021600
      9 C           -9.6730     7.4740    -4.1680 c          1 PFX       0.936600
     10 O          -10.7920     7.1160    -4.5870 o          1 PFX      -0.827800
     11 H1          -2.9020    10.9960   -10.7820 hn         1 PFX       0.333300
     12 H2          -4.4430    10.6880   -11.1450 hn         1 PFX       0.333300
     13 H3          -3.7690     9.0020    -9.5960 h1         1 PFX       0.037700
     14 H4          -3.1040    10.2800    -8.5880 h1         1 PFX       0.037700
     15 H5          -5.3480    11.2200    -8.2130 h1         1 PFX       0.023700
     16 H6          -6.0620    10.0230    -9.2980 h1         1 PFX       0.023700
     17 H7          -6.5900    10.3410    -6.3210 h1         1 PFX       0.027700
     18 H8          -7.3610     9.1880    -7.4160 h1         1 PFX       0.027700
     19 H9          -6.3130     7.2940    -6.1530 h1         1 PFX       0.034200
     20 H10         -5.4800     8.4510    -5.1090 h1         1 PFX       0.034200
     21 H11         -9.1640     8.5920    -5.9420 h1         1 PFX       0.000700
     22 H12         -8.5150     6.9610    -5.9110 h1         1 PFX       0.000700
     23 OXT         -9.2850     7.5420    -2.9910 o          1 PFX      -0.827800
@<TRIPOS>BOND
     1     1     2 1   
     2     1    11 1   
     3     1    12 1   
     4     2     3 1   
     5     2    13 1   
     6     2    14 1   
     7     3     4 1   
     8     3    15 1   
     9     3    16 1   
    10     4     5 1   
    11     5     6 1   
    12     5    17 1   
    13     5    18 1   
    14     6     7 1   
    15     6    19 1   
    16     6    20 1   
    17     7     8 1   
    18     8     9 1   
    19     8    21 1   
    20     8    22 1   
    21     9    10 1   
    22     9    23 1   
@<TRIPOS>SUBSTRUCTURE
     1 PFX         1 TEMP              0 ****  ****    0 ROOT
