@<TRIPOS>MOLECULE
PFY
   77    82     1     0     0
SMALL
abcg2


@<TRIPOS>ATOM
      1 O31          6.7550    -0.9490     0.8360 o          1 PFY      -0.613100
      2 C30          5.9920    -0.7070    -0.0960 c          1 PFY       0.666700
      3 N38          6.2660     0.1840    -1.0650 n          1 PFY      -0.398800
      4 C39          7.3950     1.1000    -1.0090 c5         1 PFY       0.105700
      5 C43          6.9390     2.4710    -0.5020 c3         1 PFY       0.166800
      6 N33          6.2970     2.4300     0.7820 n3         1 PFY      -0.723600
      7 C34          5.5420     3.6240     1.1120 c5         1 PFY       0.160800
      8 C35          5.1650     3.4150     2.5790 c5         1 PFY      -0.078900
      9 C36          6.2540     2.4630     3.1190 c5         1 PFY      -0.078900
     10 C37          7.1720     2.2230     1.9190 c5         1 PFY       0.160800
     11 C40          7.8820     1.1990    -2.4710 c5         1 PFY      -0.092400
     12 C41          6.8930     0.3580    -3.2910 c5         1 PFY      -0.098400
     13 C42          5.6700     0.2350    -2.3890 c5         1 PFY       0.103000
     14 C23          4.6910    -1.4070    -0.1890 cc         1 PFY      -0.245600
     15 C24          3.4170    -0.8300    -0.2810 cc         1 PFY      -0.024300
     16 C29          3.0910     0.6220    -0.3730 c3         1 PFY      -0.045800
     17 C22          4.5290    -2.7900    -0.0590 cd         1 PFY      -0.057300
     18 C28          5.5510    -3.8550     0.1060 c3         1 PFY      -0.039800
     19 N26          3.2220    -3.0520    -0.1000 na         1 PFY      -0.068000
     20 C25          2.4960    -1.8880    -0.2250 cd         1 PFY      -0.239800
     21 C            1.0970    -1.7840    -0.2950 cf         1 PFY       0.040800
     22 C21          0.1010    -2.7190    -0.2830 cc         1 PFY      -0.225400
     23 C20          0.2090    -4.1810    -0.1820 c          1 PFY       0.588200
     24 O32          1.2020    -4.8950    -0.0740 o          1 PFY      -0.576000
     25 N19         -1.0740    -4.6650    -0.2300 ns         1 PFY      -0.389100
     26 C18         -2.0010    -3.6590    -0.3520 ca         1 PFY       0.106600
     27 C9          -3.3790    -3.7430    -0.4410 ca         1 PFY      -0.164000
     28 C8          -4.0920    -2.5600    -0.5720 ca         1 PFY       0.013000
     29 C17         -1.3180    -2.4310    -0.3850 ca         1 PFY      -0.104800
     30 C10         -2.0320    -1.2560    -0.5100 ca         1 PFY       0.025000
     31 C7          -3.4190    -1.3410    -0.6050 ca         1 PFY      -0.309500
     32 S11         -4.3530     0.1460    -0.7560 sy         1 PFY       1.052500
     33 O12         -3.4750     1.2080    -1.2370 o          1 PFY      -0.515000
     34 O13         -5.5800    -0.1300    -1.4950 o          1 PFY      -0.515000
     35 C14         -4.8070     0.5270     0.9560 c3         1 PFY      -0.237100
     36 C1          -5.5930     1.7940     0.9880 ca         1 PFY      -0.066300
     37 C6          -6.9860     1.7990     0.8630 ca         1 PFY       0.145500
     38 CL6         -7.8560     0.3090     0.7510 cl         1 PFY      -0.180000
     39 C2          -4.9730     3.0400     1.1240 ca         1 PFY       0.145500
     40 CL5         -3.2610     3.1390     1.3470 cl         1 PFY      -0.180000
     41 C3          -5.6890     4.2250     1.1220 ca         1 PFY      -0.104000
     42 C4          -7.0650     4.1850     0.9790 ca         1 PFY      -0.083000
     43 C5          -7.7220     2.9720     0.8590 ca         1 PFY      -0.104000
     44 H39          8.1630     0.6900    -0.3520 h1         1 PFY       0.082700
     45 H421         5.0720    -0.6510    -2.5910 h1         1 PFY       0.052200
     46 H422         5.0190     1.1080    -2.4900 h1         1 PFY       0.052200
     47 H431         7.8120     3.1490    -0.5160 h1         1 PFY       0.029200
     48 H432         6.2250     2.8840    -1.2240 h1         1 PFY       0.029200
     49 H401         7.8770     2.2400    -2.8000 hc         1 PFY       0.049700
     50 H402         8.9040     0.8400    -2.5810 hc         1 PFY       0.049700
     51 H341         6.1530     4.5370     1.0040 h1         1 PFY       0.036700
     52 H342         4.6770     3.7310     0.4540 h1         1 PFY       0.036700
     53 H371         7.6070     1.2240     1.9090 h1         1 PFY       0.036700
     54 H372         8.0030     2.9510     1.9230 h1         1 PFY       0.036700
     55 H351         5.1280     4.3600     3.1220 hc         1 PFY       0.046450
     56 H352         4.1780     2.9590     2.6630 hc         1 PFY       0.046450
     57 H361         6.8000     2.8830     3.9630 hc         1 PFY       0.046450
     58 H362         5.8120     1.5240     3.4530 hc         1 PFY       0.046450
     59 H411         6.6500     0.8080    -4.2530 hc         1 PFY       0.051200
     60 H412         7.3030    -0.6350    -3.4840 hc         1 PFY       0.051200
     61 H291         2.8800     0.9220    -1.4010 hc         1 PFY       0.053367
     62 H292         2.2160     0.8770     0.2240 hc         1 PFY       0.053367
     63 H293         3.9240     1.2270    -0.0150 hc         1 PFY       0.053367
     64 H281         5.7780    -4.0160     1.1610 hc         1 PFY       0.060033
     65 H282         5.2030    -4.8010    -0.3080 hc         1 PFY       0.060033
     66 H283         6.4800    -3.5840    -0.3900 hc         1 PFY       0.060033
     67 H26          2.7720    -3.9660    -0.0550 hn         1 PFY       0.397000
     68 H            0.7590    -0.7550    -0.3810 ha         1 PFY       0.189000
     69 H19         -1.2940    -5.6490    -0.1810 hn         1 PFY       0.344500
     70 H9          -3.8900    -4.6960    -0.4180 ha         1 PFY       0.128000
     71 H8          -5.1700    -2.5990    -0.6520 ha         1 PFY       0.137000
     72 H10         -1.5300    -0.2970    -0.5430 ha         1 PFY       0.141000
     73 H141        -5.3710    -0.3260     1.3320 h1         1 PFY       0.110200
     74 H142        -3.8780     0.5950     1.5220 h1         1 PFY       0.110200
     75 H5          -8.7980     2.9380     0.7640 ha         1 PFY       0.136000
     76 H3          -5.1760     5.1700     1.2330 ha         1 PFY       0.136000
     77 H4          -7.6330     5.1050     0.9720 ha         1 PFY       0.125000
@<TRIPOS>BOND
     1     1     2 2   
     2     2     3 1   
     3     2    14 1   
     4     3     4 1   
     5     3    13 1   
     6     4     5 1   
     7     4    11 1   
     8     4    44 1   
     9     5     6 1   
    10     5    47 1   
    11     5    48 1   
    12     6     7 1   
    13     6    10 1   
    14     7     8 1   
    15     7    51 1   
    16     7    52 1   
    17     8     9 1   
    18     8    55 1   
    19     8    56 1   
    20     9    10 1   
    21     9    57 1   
    22     9    58 1   
    23    10    53 1   
    24    10    54 1   
    25    11    12 1   
    26    11    49 1   
    27    11    50 1   
    28    12    13 1   
    29    12    59 1   
    30    12    60 1   
    31    13    45 1   
    32    13    46 1   
    33    14    15 1   
    34    14    17 2   
    35    15    16 1   
    36    15    20 2   
    37    16    61 1   
    38    16    62 1   
    39    16    63 1   
    40    17    18 1   
    41    17    19 1   
    42    18    64 1   
    43    18    65 1   
    44    18    66 1   
    45    19    20 1   
    46    19    67 1   
    47    20    21 1   
    48    21    22 2   
    49    21    68 1   
    50    22    23 1   
    51    22    29 1   
    52    23    24 2   
    53    23    25 1   
    54    25    26 1   
    55    25    69 1   
    56    26    27 ar  
    57    26    29 ar  
    58    27    28 ar  
    59    27    70 1   
    60    28    31 ar  
    61    28    71 1   
    62    29    30 ar  
    63    30    31 ar  
    64    30    72 1   
    65    31    32 1   
    66    32    33 2   
    67    32    34 2   
    68    32    35 1   
    69    35    36 1   
    70    35    73 1   
    71    35    74 1   
    72    36    37 ar  
    73    36    39 ar  
    74    37    38 1   
    75    37    43 ar  
    76    39    40 1   
    77    39    41 ar  
    78    41    42 ar  
    79    41    76 1   
    80    42    43 ar  
    81    42    77 1   
    82    43    75 1   
@<TRIPOS>SUBSTRUCTURE
     1 PFY         1 TEMP              0 ****  ****    0 ROOT
