@<TRIPOS>MOLECULE
PFY
   77    82     1     0     0
SMALL
No Charge or Current Charge


@<TRIPOS>ATOM
      1 O31          6.8840    -0.9270     0.2400 o          1 PFY      -0.613100
      2 C30          5.8700    -0.5610    -0.3440 c          1 PFY       0.666700
      3 N38          5.9020     0.5450    -1.2200 n          1 PFY      -0.398800
      4 C39          7.0350     1.5170    -1.1880 c5         1 PFY       0.105700
      5 C43          6.8030     2.7100    -0.2120 c3         1 PFY       0.166800
      6 N33          6.7370     2.3630     1.2280 n3         1 PFY      -0.723600
      7 C34          6.3550     3.4720     2.1240 c5         1 PFY       0.160800
      8 C35          6.4870     2.8090     3.5220 c5         1 PFY      -0.078900
      9 C36          7.5670     1.7000     3.3130 c5         1 PFY      -0.078900
     10 C37          7.9950     1.8780     1.8340 c5         1 PFY       0.160800
     11 C40          7.0960     1.9990    -2.6710 c5         1 PFY      -0.092400
     12 C41          6.5850     0.7570    -3.4350 c5         1 PFY      -0.098400
     13 C42          5.3420     0.4190    -2.5840 c5         1 PFY       0.103000
     14 C23          4.5730    -1.3100    -0.2420 cc         1 PFY      -0.245600
     15 C24          3.2420    -0.8150    -0.4160 cc         1 PFY      -0.024300
     16 C29          2.8500     0.6310    -0.6250 c3         1 PFY      -0.045800
     17 C22          4.4970    -2.6370     0.1090 cd         1 PFY      -0.057300
     18 C28          5.5820    -3.6380     0.4200 c3         1 PFY      -0.039800
     19 N26          3.1470    -2.9750     0.0730 na         1 PFY      -0.068000
     20 C25          2.3670    -1.8630    -0.2460 cd         1 PFY      -0.239800
     21 C            0.8990    -1.8170    -0.3410 cf         1 PFY       0.040800
     22 C21         -0.0550    -2.7860    -0.1480 cc         1 PFY      -0.225400
     23 C20          0.1450    -4.2170     0.2320 c          1 PFY       0.588200
     24 O32          1.1690    -4.8470     0.4510 o          1 PFY      -0.576000
     25 N19         -1.1260    -4.7150     0.2870 ns         1 PFY      -0.389100
     26 C18         -2.1260    -3.7970    -0.0060 ca         1 PFY       0.106600
     27 C9          -3.5120    -3.9580    -0.0400 ca         1 PFY      -0.164000
     28 C8          -4.2930    -2.8330    -0.3720 ca         1 PFY       0.013000
     29 C17         -1.5040    -2.5940    -0.2810 ca         1 PFY      -0.104800
     30 C10         -2.2600    -1.4580    -0.6150 ca         1 PFY       0.025000
     31 C7          -3.6710    -1.5890    -0.6610 ca         1 PFY      -0.309500
     32 S11         -4.6800    -0.1530    -1.0680 sy         1 PFY       1.052500
     33 O12         -3.8640     0.7800    -1.8550 o          1 PFY      -0.515000
     34 O13         -5.9820    -0.6230    -1.5610 o          1 PFY      -0.515000
     35 C14         -4.9590     0.6080     0.5510 c3         1 PFY      -0.237100
     36 C1          -5.7820     1.9070     0.4740 ca         1 PFY      -0.066300
     37 C6          -7.1960     1.8780     0.5680 ca         1 PFY       0.145500
     38 Cl6         -8.0790     0.3680     0.8040 cl         1 PFY      -0.180000
     39 C2          -5.1420     3.1630     0.3180 ca         1 PFY       0.145500
     40 Cl5         -3.3840     3.3050     0.2340 cl         1 PFY      -0.180000
     41 C3          -5.8980     4.3460     0.2410 ca         1 PFY      -0.104000
     42 C4          -7.2970     4.3000     0.3220 ca         1 PFY      -0.083000
     43 C5          -7.9430     3.0660     0.4890 ca         1 PFY      -0.104000
     44 H39          7.9750     1.0160    -0.9220 h1         1 PFY       0.082700
     45 H421         4.9590    -0.5870    -2.8010 h1         1 PFY       0.052200
     46 H422         4.5400     1.1490    -2.7550 h1         1 PFY       0.052200
     47 H431         7.6040     3.4440    -0.3750 h1         1 PFY       0.029200
     48 H432         5.8620     3.1960    -0.5050 h1         1 PFY       0.029200
     49 H401         6.4420     2.8620    -2.8470 hc         1 PFY       0.049700
     50 H402         8.1090     2.2930    -2.9700 hc         1 PFY       0.049700
     51 H341         7.0450     4.3220     2.0230 h1         1 PFY       0.036700
     52 H342         5.3350     3.8350     1.9340 h1         1 PFY       0.036700
     53 H371         8.3530     0.9380     1.3940 h1         1 PFY       0.036700
     54 H372         8.7980     2.6240     1.7400 h1         1 PFY       0.036700
     55 H351         6.7780     3.5380     4.2870 hc         1 PFY       0.046450
     56 H352         5.5350     2.3700     3.8410 hc         1 PFY       0.046450
     57 H361         8.4160     1.8030     3.9980 hc         1 PFY       0.046450
     58 H362         7.1380     0.7040     3.4760 hc         1 PFY       0.046450
     59 H411         6.3340     0.9720    -4.4800 hc         1 PFY       0.051200
     60 H412         7.3180    -0.0590    -3.4260 hc         1 PFY       0.051200
     61 H291         2.5950     0.8250    -1.6730 hc         1 PFY       0.053367
     62 H292         1.9700     0.8820    -0.0220 hc         1 PFY       0.053367
     63 H293         3.6360     1.3270    -0.3150 hc         1 PFY       0.053367
     64 H281         6.0800    -3.3950     1.3660 hc         1 PFY       0.060033
     65 H282         5.1800    -4.6540     0.5080 hc         1 PFY       0.060033
     66 H283         6.3430    -3.6510    -0.3690 hc         1 PFY       0.060033
     67 H26          2.7680    -3.9020     0.2710 hn         1 PFY       0.397000
     68 H            0.4890    -0.8470    -0.6190 ha         1 PFY       0.189000
     69 H19         -1.3150    -5.6800     0.5240 hn         1 PFY       0.344500
     70 H9          -3.9730    -4.9170     0.1840 ha         1 PFY       0.128000
     71 H8          -5.3780    -2.9300    -0.4010 ha         1 PFY       0.137000
     72 H10         -1.7760    -0.5080    -0.8280 ha         1 PFY       0.141000
     73 H141        -5.4570    -0.1440     1.1700 h1         1 PFY       0.110200
     74 H142        -3.9710     0.7890     0.9850 h1         1 PFY       0.110200
     75 H5          -9.0270     3.0280     0.5620 ha         1 PFY       0.136000
     76 H3          -5.3930     5.3010     0.1200 ha         1 PFY       0.136000
     77 H4          -7.8790     5.2180     0.2620 ha         1 PFY       0.125000
@<TRIPOS>BOND
     1     1     2 2   
     2     2     3 1   
     3     2    14 1   
     4     3     4 1   
     5     3    13 1   
     6     4     5 1   
     7     4    11 1   
     8     4    44 1   
     9     5     6 1   
    10     5    47 1   
    11     5    48 1   
    12     6     7 1   
    13     6    10 1   
    14     7     8 1   
    15     7    51 1   
    16     7    52 1   
    17     8     9 1   
    18     8    55 1   
    19     8    56 1   
    20     9    10 1   
    21     9    57 1   
    22     9    58 1   
    23    10    53 1   
    24    10    54 1   
    25    11    12 1   
    26    11    49 1   
    27    11    50 1   
    28    12    13 1   
    29    12    59 1   
    30    12    60 1   
    31    13    45 1   
    32    13    46 1   
    33    14    15 1   
    34    14    17 2   
    35    15    16 1   
    36    15    20 2   
    37    16    61 1   
    38    16    62 1   
    39    16    63 1   
    40    17    18 1   
    41    17    19 1   
    42    18    64 1   
    43    18    65 1   
    44    18    66 1   
    45    19    20 1   
    46    19    67 1   
    47    20    21 1   
    48    21    22 2   
    49    21    68 1   
    50    22    23 1   
    51    22    29 1   
    52    23    24 2   
    53    23    25 1   
    54    25    26 1   
    55    25    69 1   
    56    26    27 ar  
    57    26    29 ar  
    58    27    28 ar  
    59    27    70 1   
    60    28    31 ar  
    61    28    71 1   
    62    29    30 ar  
    63    30    31 ar  
    64    30    72 1   
    65    31    32 1   
    66    32    33 2   
    67    32    34 2   
    68    32    35 1   
    69    35    36 1   
    70    35    73 1   
    71    35    74 1   
    72    36    37 ar  
    73    36    39 ar  
    74    37    38 1   
    75    37    43 ar  
    76    39    40 1   
    77    39    41 ar  
    78    41    42 ar  
    79    41    76 1   
    80    42    43 ar  
    81    42    77 1   
    82    43    75 1   
@<TRIPOS>SUBSTRUCTURE
     1 PFY         1 TEMP              0 ****  ****    0 ROOT
