@<TRIPOS>MOLECULE
PFZ
   44    45     1     0     0
SMALL
abcg2


@<TRIPOS>ATOM
      1 C1          -0.3950     0.4630     0.4720 c3         1 PFZ       0.226300
      2 O2          -1.0000     1.7260     0.6300 oh         1 PFZ      -0.657000
      3 C3           0.3210     0.3920    -0.8860 ca         1 PFZ      -0.100300
      4 C4           0.5940     0.2290     1.6290 c3         1 PFZ      -0.109400
      5 C5          -1.5710    -0.5280     0.5180 c3         1 PFZ       0.083600
      6 C6          -0.0390     0.2160     3.0180 c3         1 PFZ      -0.076400
      7 C7           1.0090     0.2090     4.1240 c3         1 PFZ      -0.076400
      8 C8           0.3940     0.1800     5.5170 c3         1 PFZ      -0.076400
      9 C9           1.4270     0.1770     6.6370 c3         1 PFZ      -0.074400
     10 C10          0.7940     0.1560     8.0210 c3         1 PFZ      -0.089100
     11 N11         -2.4430    -0.4120    -0.6280 na         1 PFZ      -0.165500
     12 C12          0.3190     1.5200    -1.7060 ca         1 PFZ      -0.078000
     13 C13          0.9400     1.5580    -2.9430 ca         1 PFZ      -0.096000
     14 C14          1.5910     0.4270    -3.3980 ca         1 PFZ       0.131000
     15 C15          1.6120    -0.7240    -2.6340 ca         1 PFZ      -0.102000
     16 C16          0.9810    -0.7290    -1.3980 ca         1 PFZ       0.136000
     17 C17         -2.4070    -1.1740    -1.7640 cc         1 PFZ      -0.236000
     18 C18         -3.3680    -0.6580    -2.5830 cd         1 PFZ       0.228900
     19 N19         -3.9870     0.4000    -1.9770 nd         1 PFZ      -0.680000
     20 C20         -3.4040     0.5200    -0.8120 cc         1 PFZ       0.404400
     21 CL21         1.0340    -2.2540    -0.5620 cl         1 PFZ      -0.208000
     22 CL22         2.3770     0.4380    -4.9380 cl         1 PFZ      -0.186000
     23 HO2         -0.3270     2.3750     0.8660 ho         1 PFZ       0.452000
     24 H41          1.3430     1.0290     1.5760 hc         1 PFZ       0.057200
     25 H42          1.1480    -0.6980     1.4870 hc         1 PFZ       0.057200
     26 H51         -1.2190    -1.5540     0.5800 h1         1 PFZ       0.075200
     27 H52         -2.1590    -0.3380     1.4160 h1         1 PFZ       0.075200
     28 H61         -0.6750    -0.6670     3.1310 hc         1 PFZ       0.045200
     29 H62         -0.6920     1.0840     3.1460 hc         1 PFZ       0.045200
     30 H71          1.6470     1.0950     4.0260 hc         1 PFZ       0.039200
     31 H72          1.6690    -0.6560     3.9980 hc         1 PFZ       0.039200
     32 H81         -0.2460    -0.7050     5.6130 hc         1 PFZ       0.038700
     33 H82         -0.2700     1.0430     5.6380 hc         1 PFZ       0.038700
     34 H91          2.0670     1.0590     6.5390 hc         1 PFZ       0.037200
     35 H92          2.0850    -0.6890     6.5200 hc         1 PFZ       0.037200
     36 H101         1.5480     0.1390     8.8090 hc         1 PFZ       0.032700
     37 H102         0.1670     1.0350     8.1810 hc         1 PFZ       0.032700
     38 H103         0.1610    -0.7250     8.1510 hc         1 PFZ       0.032700
     39 H12         -0.1990     2.4090    -1.3790 ha         1 PFZ       0.133000
     40 H13          0.9100     2.4600    -3.5380 ha         1 PFZ       0.138000
     41 H15          2.1100    -1.6140    -2.9930 ha         1 PFZ       0.145000
     42 H17         -1.7270    -2.0010    -1.8800 h4         1 PFZ       0.156000
     43 H18         -3.6490    -0.9980    -3.5680 h4         1 PFZ       0.035100
     44 H20         -3.6430     1.2530    -0.0570 h5         1 PFZ       0.058100
@<TRIPOS>BOND
     1     1     2 1   
     2     1     3 1   
     3     1     4 1   
     4     1     5 1   
     5     2    23 1   
     6     3    12 ar  
     7     3    16 ar  
     8     4     6 1   
     9     4    24 1   
    10     4    25 1   
    11     5    11 1   
    12     5    26 1   
    13     5    27 1   
    14     6     7 1   
    15     6    28 1   
    16     6    29 1   
    17     7     8 1   
    18     7    30 1   
    19     7    31 1   
    20     8     9 1   
    21     8    32 1   
    22     8    33 1   
    23     9    10 1   
    24     9    34 1   
    25     9    35 1   
    26    10    36 1   
    27    10    37 1   
    28    10    38 1   
    29    11    17 1   
    30    11    20 1   
    31    12    13 ar  
    32    12    39 1   
    33    13    14 ar  
    34    13    40 1   
    35    14    15 ar  
    36    14    22 1   
    37    15    16 ar  
    38    15    41 1   
    39    16    21 1   
    40    17    18 2   
    41    17    42 1   
    42    18    19 1   
    43    18    43 1   
    44    19    20 2   
    45    20    44 1   
@<TRIPOS>SUBSTRUCTURE
     1 PFZ         1 TEMP              0 ****  ****    0 ROOT
