@<TRIPOS>MOLECULE
PFZ
   44    45     1     0     0
SMALL
No Charge or Current Charge


@<TRIPOS>ATOM
      1 C1          -0.4650     0.5420     0.4590 c3         1 PFZ       0.226300
      2 O2          -1.0580     1.8290     0.6840 oh         1 PFZ      -0.657000
      3 C3           0.2870     0.5300    -0.9100 ca         1 PFZ      -0.100300
      4 C4           0.5380     0.3250     1.6360 c3         1 PFZ      -0.109400
      5 C5          -1.6430    -0.4840     0.4870 c3         1 PFZ       0.083600
      6 C6          -0.0620     0.3850     3.0680 c3         1 PFZ      -0.076400
      7 C7           1.0010     0.1780     4.1690 c3         1 PFZ      -0.076400
      8 C8           0.4120     0.2320     5.5960 c3         1 PFZ      -0.076400
      9 C9           1.4750     0.0240     6.6970 c3         1 PFZ      -0.074400
     10 C10          0.8880     0.0770     8.1210 c3         1 PFZ      -0.089100
     11 N11         -2.4630    -0.5080    -0.7410 na         1 PFZ      -0.165500
     12 C12          0.3700     1.7190    -1.6900 ca         1 PFZ      -0.078000
     13 C13          1.0280     1.7380    -2.9310 ca         1 PFZ      -0.096000
     14 C14          1.6200     0.5750    -3.4300 ca         1 PFZ       0.131000
     15 C15          1.5560    -0.6090    -2.6890 ca         1 PFZ      -0.102000
     16 C16          0.9020    -0.6430    -1.4460 ca         1 PFZ       0.136000
     17 C17         -2.5760    -1.5550    -1.6320 cc         1 PFZ      -0.236000
     18 C18         -3.4270    -1.1130    -2.6110 cd         1 PFZ       0.228900
     19 N19         -3.8470     0.1740    -2.3470 nd         1 PFZ      -0.680000
     20 C20         -3.2500     0.5220    -1.2140 cc         1 PFZ       0.404400
     21 Cl21         0.9010    -2.2110    -0.6340 cl         1 PFZ      -0.208000
     22 Cl22         2.4420     0.6000    -4.9850 cl         1 PFZ      -0.186000
     23 HO2         -0.3350     2.4280     0.9670 ho         1 PFZ       0.452000
     24 H41          1.3350     1.0750     1.5580 hc         1 PFZ       0.057200
     25 H42          1.0350    -0.6430     1.5290 hc         1 PFZ       0.057200
     26 H51         -1.2640    -1.4930     0.6770 h1         1 PFZ       0.075200
     27 H52         -2.3060    -0.2430     1.3280 h1         1 PFZ       0.075200
     28 H61         -0.8340    -0.3860     3.1780 hc         1 PFZ       0.045200
     29 H62         -0.5520     1.3540     3.2300 hc         1 PFZ       0.045200
     30 H71          1.7770     0.9480     4.0710 hc         1 PFZ       0.039200
     31 H72          1.4920    -0.7920     4.0190 hc         1 PFZ       0.039200
     32 H81         -0.3630    -0.5380     5.6950 hc         1 PFZ       0.038700
     33 H82         -0.0780     1.2020     5.7480 hc         1 PFZ       0.038700
     34 H91          2.2520     0.7930     6.6030 hc         1 PFZ       0.037200
     35 H92          1.9660    -0.9460     6.5500 hc         1 PFZ       0.037200
     36 H101         1.6780    -0.0760     8.8660 hc         1 PFZ       0.032700
     37 H102         0.4200     1.0500     8.3110 hc         1 PFZ       0.032700
     38 H103         0.1320    -0.7050     8.2580 hc         1 PFZ       0.032700
     39 H12         -0.0780     2.6510    -1.3560 ha         1 PFZ       0.133000
     40 H13          1.0750     2.6590    -3.5070 ha         1 PFZ       0.138000
     41 H15          2.0170    -1.5100    -3.0820 ha         1 PFZ       0.145000
     42 H17         -2.0630    -2.5010    -1.5150 h4         1 PFZ       0.156000
     43 H18         -3.7620    -1.6520    -3.4890 h4         1 PFZ       0.035100
     44 H20         -3.3460     1.4710    -0.6980 h5         1 PFZ       0.058100
@<TRIPOS>BOND
     1     1     2 1   
     2     1     3 1   
     3     1     4 1   
     4     1     5 1   
     5     2    23 1   
     6     3    12 ar  
     7     3    16 ar  
     8     4     6 1   
     9     4    24 1   
    10     4    25 1   
    11     5    11 1   
    12     5    26 1   
    13     5    27 1   
    14     6     7 1   
    15     6    28 1   
    16     6    29 1   
    17     7     8 1   
    18     7    30 1   
    19     7    31 1   
    20     8     9 1   
    21     8    32 1   
    22     8    33 1   
    23     9    10 1   
    24     9    34 1   
    25     9    35 1   
    26    10    36 1   
    27    10    37 1   
    28    10    38 1   
    29    11    17 1   
    30    11    20 1   
    31    12    13 ar  
    32    12    39 1   
    33    13    14 ar  
    34    13    40 1   
    35    14    15 ar  
    36    14    22 1   
    37    15    16 ar  
    38    15    41 1   
    39    16    21 1   
    40    17    18 2   
    41    17    42 1   
    42    18    19 1   
    43    18    43 1   
    44    19    20 2   
    45    20    44 1   
@<TRIPOS>SUBSTRUCTURE
     1 PFZ         1 TEMP              0 ****  ****    0 ROOT
