@<TRIPOS>MOLECULE
PG0
   20    19     1     0     0
SMALL
No Charge or Current Charge


@<TRIPOS>ATOM
      1 C5           3.5800    -0.9280    -0.1190 c3         1 PG0       0.145900
      2 O2           2.3800    -0.1920    -0.4060 os         1 PG0      -0.443000
      3 C4           1.8290     0.5160     0.7240 c3         1 PG0       0.158600
      4 C3           0.5440     1.2570     0.2810 c3         1 PG0       0.161600
      5 O1          -0.5050     0.2930     0.0580 os         1 PG0      -0.435000
      6 C2          -1.7580     0.8630    -0.3710 c3         1 PG0       0.160600
      7 C1          -2.7990    -0.2730    -0.5650 c3         1 PG0       0.163600
      8 OTT         -3.1640    -0.8820     0.6900 oh         1 PG0      -0.710000
      9 H51          4.3740    -0.2570     0.2340 h1         1 PG0       0.027367
     10 H52          3.3970    -1.6870     0.6540 h1         1 PG0       0.027367
     11 H53          3.9400    -1.4390    -1.0210 h1         1 PG0       0.027367
     12 H41          1.5900    -0.1740     1.5440 h1         1 PG0       0.029200
     13 H42          2.5500     1.2540     1.0980 h1         1 PG0       0.029200
     14 H31          0.2500     1.9600     1.0720 h1         1 PG0       0.026700
     15 H32          0.7480     1.8350    -0.6300 h1         1 PG0       0.026700
     16 H21         -2.1350     1.5830     0.3680 h1         1 PG0       0.026200
     17 H22         -1.6290     1.3910    -1.3240 h1         1 PG0       0.026200
     18 H11         -3.6890     0.1520    -1.0470 h1         1 PG0       0.025700
     19 H12         -2.3820    -1.0240    -1.2500 h1         1 PG0       0.025700
     20 HTT         -3.7750    -1.6270     0.4790 ho         1 PG0       0.500000
@<TRIPOS>BOND
     1     1     2 1   
     2     1     9 1   
     3     1    10 1   
     4     1    11 1   
     5     2     3 1   
     6     3     4 1   
     7     3    12 1   
     8     3    13 1   
     9     4     5 1   
    10     4    14 1   
    11     4    15 1   
    12     5     6 1   
    13     6     7 1   
    14     6    16 1   
    15     6    17 1   
    16     7     8 1   
    17     7    18 1   
    18     7    19 1   
    19     8    20 1   
@<TRIPOS>SUBSTRUCTURE
     1 PG0         1 TEMP              0 ****  ****    0 ROOT
