@<TRIPOS>MOLECULE
PG0
   20    19     1     0     0
SMALL
bcc


@<TRIPOS>ATOM
      1 C5           3.4660    -0.9140    -0.1040 c3         1 PG0       0.122700
      2 O2           2.2700    -0.2400    -0.3960 os         1 PG0      -0.396600
      3 C4           1.7990     0.5190     0.6870 c3         1 PG0       0.135400
      4 C3           0.5140     1.2080     0.3080 c3         1 PG0       0.138400
      5 O1          -0.4890     0.2520     0.0790 os         1 PG0      -0.388600
      6 C2          -1.6990     0.8210    -0.3520 c3         1 PG0       0.137400
      7 C1          -2.7210    -0.2630    -0.5830 c3         1 PG0       0.140400
      8 OTT         -3.0420    -0.8780     0.6430 oh         1 PG0      -0.587800
      9 H51          4.2820    -0.2220     0.1400 h1         1 PG0       0.027367
     10 H52          3.3530    -1.6070     0.7380 h1         1 PG0       0.027367
     11 H53          3.7540    -1.4880    -0.9850 h1         1 PG0       0.027367
     12 H41          1.6400    -0.1140     1.5730 h1         1 PG0       0.029200
     13 H42          2.5260     1.2920     0.9770 h1         1 PG0       0.029200
     14 H31          0.2370     1.8870     1.1270 h1         1 PG0       0.026700
     15 H32          0.6730     1.8340    -0.5820 h1         1 PG0       0.026700
     16 H21         -2.0800     1.5450     0.3840 h1         1 PG0       0.026200
     17 H22         -1.5640     1.3690    -1.2950 h1         1 PG0       0.026200
     18 H11         -3.5970     0.2060    -1.0490 h1         1 PG0       0.025700
     19 H12         -2.3240    -0.9850    -1.3090 h1         1 PG0       0.025700
     20 HTT         -3.6510    -1.6010     0.4660 ho         1 PG0       0.401000
@<TRIPOS>BOND
     1     1     2 1   
     2     1     9 1   
     3     1    10 1   
     4     1    11 1   
     5     2     3 1   
     6     3     4 1   
     7     3    12 1   
     8     3    13 1   
     9     4     5 1   
    10     4    14 1   
    11     4    15 1   
    12     5     6 1   
    13     6     7 1   
    14     6    16 1   
    15     6    17 1   
    16     7     8 1   
    17     7    18 1   
    18     7    19 1   
    19     8    20 1   
@<TRIPOS>SUBSTRUCTURE
     1 PG0         1 TEMP              0 ****  ****    0 ROOT
