@<TRIPOS>MOLECULE
PG2
   56    56     1     0     0
SMALL
No Charge or Current Charge


@<TRIPOS>ATOM
      1 C1          -0.5800     4.2790    -1.5930 c          1 PG2       0.718000
      2 C2          -0.5060     3.1660    -0.5330 c3         1 PG2      -0.206400
      3 C3          -1.6640     2.1580    -0.7380 c3         1 PG2      -0.048400
      4 C4          -1.7110     1.0490     0.3350 c3         1 PG2      -0.063200
      5 C5          -2.8440     0.0680     0.0890 c2         1 PG2      -0.177200
      6 C6          -2.7450    -1.1960    -0.3610 c2         1 PG2      -0.261200
      7 C7          -1.4780    -1.9350    -0.7540 c3         1 PG2      -0.021200
      8 C8          -0.9260    -2.8370     0.3780 c5         1 PG2      -0.043700
      9 C9          -1.8600    -4.0160     0.8360 c5         1 PG2       0.172300
     10 C10         -0.8520    -4.8800     1.6240 c5         1 PG2      -0.235400
     11 C11          0.3070    -4.9750     0.6370 c          1 PG2       0.588100
     12 C12          0.4350    -3.5550     0.0520 c5         1 PG2      -0.137500
     13 C13          1.5700    -2.7530     0.6920 c2         1 PG2      -0.192200
     14 C14          2.1540    -1.7720    -0.0160 c2         1 PG2      -0.240200
     15 C15          3.2260    -0.8440     0.5020 c3         1 PG2       0.201500
     16 C16          3.0020     0.6060     0.0120 c3         1 PG2      -0.106400
     17 C17          3.9660     1.6410     0.6380 c3         1 PG2      -0.073400
     18 C18          3.6780     3.0840     0.1630 c3         1 PG2      -0.075400
     19 C19          4.6200     4.1330     0.7910 c3         1 PG2      -0.076400
     20 C20          4.3210     5.5660     0.3080 c3         1 PG2      -0.087100
     21 O1          -0.0130     4.1010    -2.6600 o          1 PG2      -0.742500
     22 O2          -1.2490     5.2710    -1.3400 o          1 PG2      -0.742500
     23 O3          -2.4100    -4.7550    -0.2530 oh         1 PG2      -0.652000
     24 O4           0.7740    -5.9970     0.1470 o          1 PG2      -0.522100
     25 O5           4.4940    -1.3250     0.0510 oh         1 PG2      -0.646000
     26 H21         -0.6420     3.5840     0.4740 hc         1 PG2       0.015700
     27 H22          0.4180     2.5860    -0.6500 hc         1 PG2       0.015700
     28 H31         -1.5690     1.6950    -1.7290 hc         1 PG2       0.040700
     29 H32         -2.6200     2.6990    -0.7300 hc         1 PG2       0.040700
     30 H41         -1.8360     1.5100     1.3220 hc         1 PG2       0.034700
     31 H42         -0.7410     0.5380     0.3650 hc         1 PG2       0.034700
     32 H5          -3.8300     0.4730     0.3320 ha         1 PG2       0.159000
     33 H6          -3.6510    -1.7930    -0.4840 ha         1 PG2       0.155000
     34 H71         -0.7010    -1.2200    -1.0510 hc         1 PG2       0.055200
     35 H72         -1.6670    -2.5330    -1.6540 hc         1 PG2       0.055200
     36 H8          -0.7890    -2.1650     1.2350 hc         1 PG2       0.061700
     37 H9          -2.6680    -3.6450     1.4840 h1         1 PG2       0.050700
     38 H101        -0.5330    -4.3090     2.5030 hc         1 PG2       0.072700
     39 H102        -1.2260    -5.8680     1.9120 hc         1 PG2       0.072700
     40 H12          0.6060    -3.6670    -1.0260 hc         1 PG2       0.087700
     41 H13          1.8820    -2.9480     1.7210 ha         1 PG2       0.179000
     42 H14          1.8360    -1.5630    -1.0390 ha         1 PG2       0.173000
     43 H15          3.1910    -0.8390     1.6040 h1         1 PG2       0.093700
     44 H161         1.9720     0.8970     0.2610 hc         1 PG2       0.041200
     45 H162         3.0820     0.6460    -1.0840 hc         1 PG2       0.041200
     46 H171         5.0020     1.3770     0.3840 hc         1 PG2       0.047700
     47 H172         3.8820     1.5970     1.7320 hc         1 PG2       0.047700
     48 H181         2.6400     3.3450     0.4080 hc         1 PG2       0.033700
     49 H182         3.7700     3.1280    -0.9320 hc         1 PG2       0.033700
     50 H191         5.6620     3.8820     0.5490 hc         1 PG2       0.039200
     51 H192         4.5280     4.0980     1.8860 hc         1 PG2       0.039200
     52 H201         5.0030     6.2820     0.7820 hc         1 PG2       0.028367
     53 H202         4.4470     5.6430    -0.7810 hc         1 PG2       0.028367
     54 H203         3.2900     5.8540     0.5590 hc         1 PG2       0.028367
     55 HO3         -3.0760    -5.3690     0.1260 ho         1 PG2       0.434000
     56 HO5          4.4010    -1.4980    -0.9100 ho         1 PG2       0.434000
@<TRIPOS>BOND
     1     1     2 1   
     2     1    21 1   
     3     1    22 1   
     4     2     3 1   
     5     2    26 1   
     6     2    27 1   
     7     3     4 1   
     8     3    28 1   
     9     3    29 1   
    10     4     5 1   
    11     4    30 1   
    12     4    31 1   
    13     5     6 2   
    14     5    32 1   
    15     6     7 1   
    16     6    33 1   
    17     7     8 1   
    18     7    34 1   
    19     7    35 1   
    20     8     9 1   
    21     8    12 1   
    22     8    36 1   
    23     9    10 1   
    24     9    23 1   
    25     9    37 1   
    26    10    11 1   
    27    10    38 1   
    28    10    39 1   
    29    11    12 1   
    30    11    24 2   
    31    12    13 1   
    32    12    40 1   
    33    13    14 2   
    34    13    41 1   
    35    14    15 1   
    36    14    42 1   
    37    15    16 1   
    38    15    25 1   
    39    15    43 1   
    40    16    17 1   
    41    16    44 1   
    42    16    45 1   
    43    17    18 1   
    44    17    46 1   
    45    17    47 1   
    46    18    19 1   
    47    18    48 1   
    48    18    49 1   
    49    19    20 1   
    50    19    50 1   
    51    19    51 1   
    52    20    52 1   
    53    20    53 1   
    54    20    54 1   
    55    23    55 1   
    56    25    56 1   
@<TRIPOS>SUBSTRUCTURE
     1 PG2         1 TEMP              0 ****  ****    0 ROOT
