@<TRIPOS>MOLECULE
PG2
   56    56     1     0     0
SMALL
bcc


@<TRIPOS>ATOM
      1 C1          -4.0060     4.1950     0.5790 c          1 PG2       0.928600
      2 C2          -3.4780     2.8390     1.0800 c3         1 PG2      -0.206400
      3 C3          -4.0170     1.6060     0.3750 c3         1 PG2      -0.048400
      4 C4          -3.4280     0.3130     0.9450 c3         1 PG2      -0.063200
      5 C5          -3.9360    -0.9070     0.2440 c2         1 PG2      -0.127200
      6 C6          -3.2260    -1.7680    -0.4840 c2         1 PG2      -0.211200
      7 C7          -1.7490    -1.7120    -0.7340 c3         1 PG2      -0.021200
      8 C8          -0.9580    -2.6440     0.1800 c5         1 PG2      -0.043700
      9 C9          -1.3150    -4.1310     0.0900 c5         1 PG2       0.149100
     10 C10         -0.1500    -4.8020     0.8090 c5         1 PG2      -0.235400
     11 C11          1.0470    -3.9470     0.4650 c          1 PG2       0.588100
     12 C12          0.5580    -2.6090    -0.0780 c5         1 PG2      -0.137500
     13 C13          1.2620    -1.4410     0.5280 c2         1 PG2      -0.142200
     14 C14          1.8340    -0.4690    -0.1740 c2         1 PG2      -0.190200
     15 C15          2.5380     0.7290     0.4010 c3         1 PG2       0.178300
     16 C16          3.9070     0.9050    -0.2580 c3         1 PG2      -0.106400
     17 C17          4.6480     2.1620     0.1830 c3         1 PG2      -0.073400
     18 C18          5.9440     2.3750    -0.5880 c3         1 PG2      -0.075400
     19 C19          6.7080     3.6190    -0.1520 c3         1 PG2      -0.076400
     20 C20          7.9870     3.8370    -0.9480 c3         1 PG2      -0.087100
     21 O1          -3.5310     5.2050     1.1400 o          1 PG2      -0.847800
     22 O2          -4.8540     4.1890    -0.3350 o          1 PG2      -0.847800
     23 O3          -1.3470    -4.4870    -1.2740 oh         1 PG2      -0.589800
     24 O4           2.2040    -4.2510     0.6140 o          1 PG2      -0.522100
     25 O5           2.6160     0.7010     1.8070 oh         1 PG2      -0.583800
     26 H21         -3.6840     2.7670     2.1550 hc         1 PG2       0.015700
     27 H22         -2.3840     2.8520     1.0060 hc         1 PG2       0.015700
     28 H31         -3.7920     1.6580    -0.6940 hc         1 PG2       0.040700
     29 H32         -5.1070     1.5740     0.4530 hc         1 PG2       0.040700
     30 H41         -3.6840     0.2460     2.0080 hc         1 PG2       0.034700
     31 H42         -2.3370     0.3620     0.9040 hc         1 PG2       0.034700
     32 H5          -5.0050    -1.0850     0.3370 ha         1 PG2       0.109000
     33 H6          -3.7490    -2.6080    -0.9310 ha         1 PG2       0.105000
     34 H71         -1.3700    -0.6980    -0.5930 hc         1 PG2       0.055200
     35 H72         -1.5430    -1.9700    -1.7760 hc         1 PG2       0.055200
     36 H8          -1.1370    -2.3380     1.2190 hc         1 PG2       0.061700
     37 H9          -2.2710    -4.3460     0.5800 h1         1 PG2       0.050700
     38 H101        -0.2930    -4.7360     1.8940 hc         1 PG2       0.072700
     39 H102        -0.0040    -5.8570     0.5690 hc         1 PG2       0.072700
     40 H12          0.7370    -2.6260    -1.1610 hc         1 PG2       0.087700
     41 H13          1.2590    -1.3940     1.6140 ha         1 PG2       0.129000
     42 H14          1.8120    -0.5130    -1.2600 ha         1 PG2       0.123000
     43 H15          1.9400     1.6170     0.1610 h1         1 PG2       0.093700
     44 H161         3.7590     0.9360    -1.3420 hc         1 PG2       0.041200
     45 H162         4.5220     0.0180    -0.0630 hc         1 PG2       0.041200
     46 H171         4.8660     2.1110     1.2540 hc         1 PG2       0.047700
     47 H172         3.9970     3.0330     0.0460 hc         1 PG2       0.047700
     48 H181         5.7200     2.4450    -1.6590 hc         1 PG2       0.033700
     49 H182         6.5870     1.4960    -0.4720 hc         1 PG2       0.033700
     50 H191         6.9490     3.5410     0.9130 hc         1 PG2       0.039200
     51 H192         6.0600     4.4950    -0.2510 hc         1 PG2       0.039200
     52 H201         8.5230     4.7250    -0.6110 hc         1 PG2       0.028367
     53 H202         8.6630     2.9850    -0.8490 hc         1 PG2       0.028367
     54 H203         7.7730     3.9640    -2.0110 hc         1 PG2       0.028367
     55 HO3         -1.4940    -5.4360    -1.3390 ho         1 PG2       0.395000
     56 HO5          3.2010    -0.0230     2.0600 ho         1 PG2       0.395000
@<TRIPOS>BOND
     1     1     2 1   
     2     1    21 1   
     3     1    22 1   
     4     2     3 1   
     5     2    26 1   
     6     2    27 1   
     7     3     4 1   
     8     3    28 1   
     9     3    29 1   
    10     4     5 1   
    11     4    30 1   
    12     4    31 1   
    13     5     6 2   
    14     5    32 1   
    15     6     7 1   
    16     6    33 1   
    17     7     8 1   
    18     7    34 1   
    19     7    35 1   
    20     8     9 1   
    21     8    12 1   
    22     8    36 1   
    23     9    10 1   
    24     9    23 1   
    25     9    37 1   
    26    10    11 1   
    27    10    38 1   
    28    10    39 1   
    29    11    12 1   
    30    11    24 2   
    31    12    13 1   
    32    12    40 1   
    33    13    14 2   
    34    13    41 1   
    35    14    15 1   
    36    14    42 1   
    37    15    16 1   
    38    15    25 1   
    39    15    43 1   
    40    16    17 1   
    41    16    44 1   
    42    16    45 1   
    43    17    18 1   
    44    17    46 1   
    45    17    47 1   
    46    18    19 1   
    47    18    48 1   
    48    18    49 1   
    49    19    20 1   
    50    19    50 1   
    51    19    51 1   
    52    20    52 1   
    53    20    53 1   
    54    20    54 1   
    55    23    55 1   
    56    25    56 1   
@<TRIPOS>SUBSTRUCTURE
     1 PG2         1 TEMP              0 ****  ****    0 ROOT
