@<TRIPOS>MOLECULE
PG3
   20    19     1     0     0
SMALL
No Charge or Current Charge


@<TRIPOS>ATOM
      1 OA           3.9440    -0.4200     0.0360 oh         1 PG3      -0.650000
      2 CB           2.8120     0.4570     0.0320 c3         1 PG3       0.175600
      3 CG           1.5160    -0.3750     0.0260 c3         1 PG3      -0.104400
      4 CD           0.2500     0.5000     0.0210 c3         1 PG3       0.060600
      5 NE          -0.9540    -0.3530     0.0150 nu         1 PG3      -0.890000
      6 CZ          -2.2210     0.0040     0.0110 cz         1 PG3       0.937600
      7 NH1         -2.5560     1.2610     0.0110 nv         1 PG3      -0.612300
      8 NH2         -3.1380    -0.9160     0.0060 nv         1 PG3      -0.612300
      9 HA           4.7470     0.1500     0.0400 ho         1 PG3       0.466000
     10 HB1          2.8260     1.1020     0.9210 h1         1 PG3       0.024700
     11 HB2          2.8330     1.1030    -0.8560 h1         1 PG3       0.024700
     12 HG1          1.5050    -1.0250     0.9090 hc         1 PG3       0.075200
     13 HG2          1.5130    -1.0240    -0.8580 hc         1 PG3       0.075200
     14 HD1          0.2640     1.1470    -0.8690 h1         1 PG3       0.065700
     15 HD2          0.2560     1.1460     0.9120 h1         1 PG3       0.065700
     16 HE          -0.7850    -1.3530     0.0150 hn         1 PG3       0.376000
     17 HH11        -1.8530     1.9790     0.0140 hn         1 PG3       0.380000
     18 HH12        -3.5160     1.5620     0.0070 hn         1 PG3       0.380000
     19 HH21        -4.1190    -0.6890     0.0020 hn         1 PG3       0.380000
     20 HH22        -2.9020    -1.8930     0.0060 hn         1 PG3       0.380000
@<TRIPOS>BOND
     1     1     2 1   
     2     1     9 1   
     3     2     3 1   
     4     2    10 1   
     5     2    11 1   
     6     3     4 1   
     7     3    12 1   
     8     3    13 1   
     9     4     5 1   
    10     4    14 1   
    11     4    15 1   
    12     5     6 2   
    13     5    16 1   
    14     6     7 1   
    15     6     8 1   
    16     7    17 1   
    17     7    18 1   
    18     8    19 1   
    19     8    20 1   
@<TRIPOS>SUBSTRUCTURE
     1 PG3         1 TEMP              0 ****  ****    0 ROOT
