@<TRIPOS>MOLECULE
PG3
   20    19     1     0     0
SMALL
abcg2


@<TRIPOS>ATOM
      1 OA           3.8950    -0.3310    -0.0040 oh         1 PG3      -0.650000
      2 CB           2.7480     0.4880     0.0300 c3         1 PG3       0.175600
      3 CG           1.5220    -0.4050     0.0200 c3         1 PG3      -0.104400
      4 CD           0.2510     0.4270     0.0510 c3         1 PG3       0.060600
      5 NE          -0.9130    -0.4410     0.0510 nu         1 PG3      -0.890000
      6 CZ          -2.1670    -0.0140     0.0110 cz         1 PG3       0.937600
      7 NH1         -2.4360     1.2840    -0.0300 nv         1 PG3      -0.612300
      8 NH2         -3.1620    -0.8930     0.0080 nv         1 PG3      -0.612300
      9 HA           4.6690     0.2380    -0.0010 ho         1 PG3       0.466000
     10 HB1          2.7300     1.1180     0.9290 h1         1 PG3       0.024700
     11 HB2          2.7110     1.1650    -0.8330 h1         1 PG3       0.024700
     12 HG1          1.5460    -1.0710     0.8880 hc         1 PG3       0.075200
     13 HG2          1.5290    -1.0290    -0.8780 hc         1 PG3       0.075200
     14 HD1          0.2220     1.0830    -0.8240 h1         1 PG3       0.065700
     15 HD2          0.2460     1.0610     0.9430 h1         1 PG3       0.065700
     16 HE          -0.7630    -1.4360     0.1170 hn         1 PG3       0.376000
     17 HH11        -1.7140     1.9820     0.0150 hn         1 PG3       0.380000
     18 HH12        -3.3840     1.6160    -0.0780 hn         1 PG3       0.380000
     19 HH21        -4.1230    -0.5980    -0.0150 hn         1 PG3       0.380000
     20 HH22        -2.9840    -1.8830    -0.0000 hn         1 PG3       0.380000
@<TRIPOS>BOND
     1     1     2 1   
     2     1     9 1   
     3     2     3 1   
     4     2    10 1   
     5     2    11 1   
     6     3     4 1   
     7     3    12 1   
     8     3    13 1   
     9     4     5 1   
    10     4    14 1   
    11     4    15 1   
    12     5     6 2   
    13     5    16 1   
    14     6     7 1   
    15     6     8 1   
    16     7    17 1   
    17     7    18 1   
    18     8    19 1   
    19     8    20 1   
@<TRIPOS>SUBSTRUCTURE
     1 PG3         1 TEMP              0 ****  ****    0 ROOT
