@<TRIPOS>MOLECULE
PG4
   31    30     1     0     0
SMALL
No Charge or Current Charge


@<TRIPOS>ATOM
      1 O1           0.4410     0.9760     5.4640 oh         1 PG4      -0.709000
      2 C1           1.4380     0.3590     4.6250 c3         1 PG4       0.164100
      3 C2           0.8520    -0.8270     3.8130 c3         1 PG4       0.160600
      4 O2          -0.0810    -0.3210     2.8360 os         1 PG4      -0.435000
      5 C3          -0.7010    -1.3370     2.0220 c3         1 PG4       0.161600
      6 C4          -1.6620    -0.6610     1.0130 c3         1 PG4       0.162600
      7 O3          -0.8860     0.0170     0.0050 os         1 PG4      -0.438000
      8 C5          -1.6710     0.6990    -0.9930 c3         1 PG4       0.162600
      9 C6          -0.7200     1.3710    -2.0130 c3         1 PG4       0.161600
     10 O4          -0.1130     0.3530    -2.8350 os         1 PG4      -0.435000
     11 C7           0.8100     0.8560    -3.8220 c3         1 PG4       0.160600
     12 C8           1.3820    -0.3330    -4.6410 c3         1 PG4       0.164100
     13 O5           0.3730    -0.9460    -5.4680 oh         1 PG4      -0.709000
     14 HO1          0.8710     1.7510     5.8960 ho         1 PG4       0.499000
     15 H11          1.8620     1.0940     3.9270 h1         1 PG4       0.024450
     16 H12          2.2630    -0.0190     5.2430 h1         1 PG4       0.024450
     17 H21          1.6750    -1.3550     3.3130 h1         1 PG4       0.026200
     18 H22          0.3610    -1.5330     4.4960 h1         1 PG4       0.026200
     19 H31          0.0530    -1.9200     1.4760 h1         1 PG4       0.028200
     20 H32         -1.2780    -2.0270     2.6510 h1         1 PG4       0.028200
     21 H41         -2.2900    -1.4340     0.5520 h1         1 PG4       0.028700
     22 H42         -2.3180     0.0400     1.5450 h1         1 PG4       0.028700
     23 H51         -2.3370     0.0000    -1.5170 h1         1 PG4       0.028700
     24 H52         -2.2910     1.4740    -0.5240 h1         1 PG4       0.028700
     25 H61         -1.3010     2.0640    -2.6350 h1         1 PG4       0.028200
     26 H62          0.0420     1.9510    -1.4760 h1         1 PG4       0.028200
     27 H71          0.3140     1.5630    -4.5000 h1         1 PG4       0.026200
     28 H72          1.6410     1.3810    -3.3320 h1         1 PG4       0.026200
     29 H81          2.2010     0.0420    -5.2690 h1         1 PG4       0.024450
     30 H82          1.8110    -1.0690    -3.9480 h1         1 PG4       0.024450
     31 HO5          0.7950    -1.7220    -5.9050 ho         1 PG4       0.499000
@<TRIPOS>BOND
     1     1     2 1   
     2     1    14 1   
     3     2     3 1   
     4     2    15 1   
     5     2    16 1   
     6     3     4 1   
     7     3    17 1   
     8     3    18 1   
     9     4     5 1   
    10     5     6 1   
    11     5    19 1   
    12     5    20 1   
    13     6     7 1   
    14     6    21 1   
    15     6    22 1   
    16     7     8 1   
    17     8     9 1   
    18     8    23 1   
    19     8    24 1   
    20     9    10 1   
    21     9    25 1   
    22     9    26 1   
    23    10    11 1   
    24    11    12 1   
    25    11    27 1   
    26    11    28 1   
    27    12    13 1   
    28    12    29 1   
    29    12    30 1   
    30    13    31 1   
@<TRIPOS>SUBSTRUCTURE
     1 PG4         1 TEMP              0 ****  ****    0 ROOT
