@<TRIPOS>MOLECULE
PG4
   31    30     1     0     0
SMALL
bcc


@<TRIPOS>ATOM
      1 O1           0.6550     1.0520     5.0970 oh         1 PG4      -0.586800
      2 C1           1.5540     0.2750     4.3390 c3         1 PG4       0.140900
      3 C2           0.8040    -0.8290     3.6390 c3         1 PG4       0.137400
      4 O2          -0.0820    -0.2860     2.6930 os         1 PG4      -0.388600
      5 C3          -0.8000    -1.2720     1.9960 c3         1 PG4       0.138400
      6 C4          -1.7120    -0.6200     0.9900 c3         1 PG4       0.139400
      7 O3          -0.9440     0.0190     0.0030 os         1 PG4      -0.391600
      8 C5          -1.7240     0.6650    -0.9710 c3         1 PG4       0.139400
      9 C6          -0.8220     1.3120    -1.9900 c3         1 PG4       0.138400
     10 O4          -0.1200     0.3210    -2.6960 os         1 PG4      -0.388600
     11 C7           0.7580     0.8560    -3.6540 c3         1 PG4       0.137400
     12 C8           1.5010    -0.2540    -4.3510 c3         1 PG4       0.140900
     13 O5           0.5960    -1.0390    -5.0920 oh         1 PG4      -0.586800
     14 HO1          1.1560     1.7470     5.5330 ho         1 PG4       0.400000
     15 H11          2.0870     0.8800     3.5940 h1         1 PG4       0.024450
     16 H12          2.3180    -0.1980     4.9680 h1         1 PG4       0.024450
     17 H21          1.5390    -1.4880     3.1570 h1         1 PG4       0.026200
     18 H22          0.2650    -1.4420     4.3760 h1         1 PG4       0.026200
     19 H31         -0.1190    -1.9690     1.4870 h1         1 PG4       0.028200
     20 H32         -1.4150    -1.8730     2.6810 h1         1 PG4       0.028200
     21 H41         -2.3530    -1.3980     0.5510 h1         1 PG4       0.028700
     22 H42         -2.3800     0.0930     1.4960 h1         1 PG4       0.028700
     23 H51         -2.4020    -0.0440    -1.4680 h1         1 PG4       0.028700
     24 H52         -2.3530     1.4450    -0.5210 h1         1 PG4       0.028700
     25 H61         -1.4440     1.9150    -2.6660 h1         1 PG4       0.028200
     26 H62         -0.1300     2.0060    -1.4910 h1         1 PG4       0.028200
     27 H71          0.2120     1.4640    -4.3900 h1         1 PG4       0.026200
     28 H72          1.4980     1.5190    -3.1820 h1         1 PG4       0.026200
     29 H81          2.2580     0.2150    -4.9930 h1         1 PG4       0.024450
     30 H82          2.0440    -0.8510    -3.6060 h1         1 PG4       0.024450
     31 HO5          1.0930    -1.7340    -5.5310 ho         1 PG4       0.400000
@<TRIPOS>BOND
     1     1     2 1   
     2     1    14 1   
     3     2     3 1   
     4     2    15 1   
     5     2    16 1   
     6     3     4 1   
     7     3    17 1   
     8     3    18 1   
     9     4     5 1   
    10     5     6 1   
    11     5    19 1   
    12     5    20 1   
    13     6     7 1   
    14     6    21 1   
    15     6    22 1   
    16     7     8 1   
    17     8     9 1   
    18     8    23 1   
    19     8    24 1   
    20     9    10 1   
    21     9    25 1   
    22     9    26 1   
    23    10    11 1   
    24    11    12 1   
    25    11    27 1   
    26    11    28 1   
    27    12    13 1   
    28    12    29 1   
    29    12    30 1   
    30    13    31 1   
@<TRIPOS>SUBSTRUCTURE
     1 PG4         1 TEMP              0 ****  ****    0 ROOT
