@<TRIPOS>MOLECULE
PG5
   30    29     1     0     0
SMALL
No Charge or Current Charge


@<TRIPOS>ATOM
      1 C1           1.4220    -0.9180    -5.0030 c3         1 PG5       0.145900
      2 O1           0.3710    -0.4290    -4.1550 os         1 PG5      -0.443000
      3 C2           0.6970     0.7780    -3.4350 c3         1 PG5       0.158600
      4 C3          -0.5110     1.1900    -2.5600 c3         1 PG5       0.161600
      5 O2          -0.6310     0.2680    -1.4580 os         1 PG5      -0.435000
      6 C4          -1.7310     0.5410    -0.5680 c3         1 PG5       0.162100
      7 C5          -1.7350    -0.5090     0.5680 c3         1 PG5       0.162100
      8 O3          -0.6290    -0.2480     1.4550 os         1 PG5      -0.435000
      9 C6          -0.5160    -1.1720     2.5560 c3         1 PG5       0.161600
     10 C7           0.7000    -0.7730     3.4270 c3         1 PG5       0.158600
     11 O4           0.3890     0.4370     4.1490 os         1 PG5      -0.443000
     12 C8           1.4480     0.9140     4.9940 c3         1 PG5       0.145900
     13 H11          2.3210    -1.1500    -4.4160 h1         1 PG5       0.026867
     14 H12          1.1030    -1.8350    -5.5160 h1         1 PG5       0.026867
     15 H13          1.6870    -0.1740    -5.7660 h1         1 PG5       0.026867
     16 H21          1.5790     0.6310    -2.7980 h1         1 PG5       0.029200
     17 H22          0.9170     1.5920    -4.1390 h1         1 PG5       0.029200
     18 H31         -0.3460     2.2090    -2.1860 h1         1 PG5       0.026700
     19 H32         -1.4230     1.1950    -3.1710 h1         1 PG5       0.026700
     20 H41         -1.6500     1.5480    -0.1370 h1         1 PG5       0.028200
     21 H42         -2.6830     0.4790    -1.1110 h1         1 PG5       0.028200
     22 H51         -2.6840    -0.4360     1.1150 h1         1 PG5       0.028200
     23 H52         -1.6660    -1.5170     0.1370 h1         1 PG5       0.028200
     24 H61         -1.4260    -1.1670     3.1700 h1         1 PG5       0.026700
     25 H62         -0.3630    -2.1920     2.1800 h1         1 PG5       0.026700
     26 H71          0.9130    -1.5900     4.1300 h1         1 PG5       0.029200
     27 H72          1.5810    -0.6360     2.7870 h1         1 PG5       0.029200
     28 H81          1.1410     1.8330     5.5080 h1         1 PG5       0.026867
     29 H82          1.7070     0.1670     5.7550 h1         1 PG5       0.026867
     30 H83          2.3470     1.1370     4.4040 h1         1 PG5       0.026867
@<TRIPOS>BOND
     1     1     2 1   
     2     1    13 1   
     3     1    14 1   
     4     1    15 1   
     5     2     3 1   
     6     3     4 1   
     7     3    16 1   
     8     3    17 1   
     9     4     5 1   
    10     4    18 1   
    11     4    19 1   
    12     5     6 1   
    13     6     7 1   
    14     6    20 1   
    15     6    21 1   
    16     7     8 1   
    17     7    22 1   
    18     7    23 1   
    19     8     9 1   
    20     9    10 1   
    21     9    24 1   
    22     9    25 1   
    23    10    11 1   
    24    10    26 1   
    25    10    27 1   
    26    11    12 1   
    27    12    28 1   
    28    12    29 1   
    29    12    30 1   
@<TRIPOS>SUBSTRUCTURE
     1 PG5         1 TEMP              0 ****  ****    0 ROOT
