@<TRIPOS>MOLECULE
PG5
   30    29     1     0     0
SMALL
bcc


@<TRIPOS>ATOM
      1 C1           1.6080    -0.8310    -4.6800 c3         1 PG5       0.122700
      2 O1           0.4980    -0.4830    -3.8930 os         1 PG5      -0.396600
      3 C2           0.6280     0.7890    -3.3130 c3         1 PG5       0.135400
      4 C3          -0.5980     1.1100    -2.4980 c3         1 PG5       0.138400
      5 O2          -0.6820     0.2390    -1.4000 os         1 PG5      -0.388600
      6 C4          -1.7920     0.5000    -0.5800 c3         1 PG5       0.138900
      7 C5          -1.7960    -0.4600     0.5820 c3         1 PG5       0.138900
      8 O3          -0.6780    -0.2160     1.3960 os         1 PG5      -0.388600
      9 C6          -0.5970    -1.0940     2.4900 c3         1 PG5       0.138400
     10 C7           0.6340    -0.7860     3.3030 c3         1 PG5       0.135400
     11 O4           0.5130     0.4850     3.8900 os         1 PG5      -0.396600
     12 C8           1.6280     0.8220     4.6740 c3         1 PG5       0.122700
     13 H11          2.5350    -0.8660    -4.0950 h1         1 PG5       0.026867
     14 H12          1.4290    -1.8210    -5.0980 h1         1 PG5       0.026867
     15 H13          1.7620    -0.1300    -5.5090 h1         1 PG5       0.026867
     16 H21          1.5250     0.8440    -2.6780 h1         1 PG5       0.029200
     17 H22          0.7380     1.5660    -4.0830 h1         1 PG5       0.029200
     18 H31         -0.5250     2.1560    -2.1680 h1         1 PG5       0.026700
     19 H32         -1.4960     1.0390    -3.1300 h1         1 PG5       0.026700
     20 H41         -1.7740     1.5360    -0.2090 h1         1 PG5       0.028200
     21 H42         -2.7330     0.3780    -1.1330 h1         1 PG5       0.028200
     22 H51         -2.7320    -0.3230     1.1410 h1         1 PG5       0.028200
     23 H52         -1.7980    -1.4950     0.2120 h1         1 PG5       0.028200
     24 H61         -1.4920    -1.0200     3.1250 h1         1 PG5       0.026700
     25 H62         -0.5320    -2.1380     2.1540 h1         1 PG5       0.026700
     26 H71          0.7400    -1.5670     4.0690 h1         1 PG5       0.029200
     27 H72          1.5280    -0.8420     2.6650 h1         1 PG5       0.029200
     28 H81          1.4570     1.8120     5.0950 h1         1 PG5       0.026867
     29 H82          1.7810     0.1170     5.5000 h1         1 PG5       0.026867
     30 H83          2.5530     0.8530     4.0850 h1         1 PG5       0.026867
@<TRIPOS>BOND
     1     1     2 1   
     2     1    13 1   
     3     1    14 1   
     4     1    15 1   
     5     2     3 1   
     6     3     4 1   
     7     3    16 1   
     8     3    17 1   
     9     4     5 1   
    10     4    18 1   
    11     4    19 1   
    12     5     6 1   
    13     6     7 1   
    14     6    20 1   
    15     6    21 1   
    16     7     8 1   
    17     7    22 1   
    18     7    23 1   
    19     8     9 1   
    20     9    10 1   
    21     9    24 1   
    22     9    25 1   
    23    10    11 1   
    24    10    26 1   
    25    10    27 1   
    26    11    12 1   
    27    12    28 1   
    28    12    29 1   
    29    12    30 1   
@<TRIPOS>SUBSTRUCTURE
     1 PG5         1 TEMP              0 ****  ****    0 ROOT
