@<TRIPOS>MOLECULE
PG6
   44    43     1     0     0
SMALL
abcg2


@<TRIPOS>ATOM
      1 C1           1.4280    -0.1500    -7.3600 c3         1 PG6       0.145900
      2 O1           0.3360     0.0910    -6.5110 os         1 PG6      -0.442000
      3 C2           0.4860     1.2690    -5.7620 c3         1 PG6       0.159100
      4 C3          -0.6980     1.4450    -4.8470 c3         1 PG6       0.161600
      5 O2          -0.7250     0.4070    -3.9000 os         1 PG6      -0.434000
      6 C4          -1.8000     0.5190    -3.0030 c3         1 PG6       0.162100
      7 C5          -1.8290    -0.6780    -2.0890 c3         1 PG6       0.161600
      8 O3          -0.6790    -0.6970    -1.2810 os         1 PG6      -0.435000
      9 C6          -0.6540    -1.8020    -0.4140 c3         1 PG6       0.161600
     10 C7           0.6250    -1.8100     0.3810 c3         1 PG6       0.161600
     11 O4           0.6630    -0.7050     1.2480 os         1 PG6      -0.435000
     12 C8           1.8120    -0.7000     2.0570 c3         1 PG6       0.161600
     13 C9           1.7940     0.4960     2.9730 c3         1 PG6       0.162100
     14 O5           0.7220     0.3900     3.8740 os         1 PG6      -0.434000
     15 C10          0.7020     1.4300     4.8180 c3         1 PG6       0.161600
     16 C11         -0.4850     1.2660     5.7320 c3         1 PG6       0.159100
     17 O6          -0.3450     0.0880     6.4840 os         1 PG6      -0.442000
     18 C12         -1.4410    -0.1430     7.3300 c3         1 PG6       0.145900
     19 H11          2.3700    -0.2340    -6.8050 h1         1 PG6       0.026867
     20 H12          1.2510    -1.0900    -7.8800 h1         1 PG6       0.026867
     21 H13          1.5520     0.6410    -8.1100 h1         1 PG6       0.026867
     22 H21          1.4140     1.2460    -5.1730 h1         1 PG6       0.028700
     23 H22          0.5470     2.1520    -6.4150 h1         1 PG6       0.028700
     24 H31         -0.6110     2.4260    -4.3590 h1         1 PG6       0.026200
     25 H32         -1.6280     1.4650    -5.4330 h1         1 PG6       0.026200
     26 H41         -1.7280     1.4440    -2.4130 h1         1 PG6       0.027700
     27 H42         -2.7590     0.5580    -3.5370 h1         1 PG6       0.027700
     28 H51         -2.7410    -0.6200    -1.4780 h1         1 PG6       0.027700
     29 H52         -1.9040    -1.6010    -2.6820 h1         1 PG6       0.027700
     30 H61         -1.5190    -1.7890     0.2650 h1         1 PG6       0.028200
     31 H62         -0.7070    -2.7450    -0.9760 h1         1 PG6       0.028200
     32 H71          0.6660    -2.7530     0.9440 h1         1 PG6       0.028200
     33 H72          1.4900    -1.8070    -0.2970 h1         1 PG6       0.028200
     34 H81          1.8770    -1.6240     2.6500 h1         1 PG6       0.027700
     35 H82          2.7260    -0.6510     1.4480 h1         1 PG6       0.027700
     36 H91          2.7560     0.5300     3.5040 h1         1 PG6       0.027700
     37 H92          1.7260     1.4220     2.3840 h1         1 PG6       0.027700
     38 H101         1.6310     1.4440     5.4060 h1         1 PG6       0.026200
     39 H102         0.6240     2.4110     4.3280 h1         1 PG6       0.026200
     40 H111        -0.5400     2.1510     6.3820 h1         1 PG6       0.028700
     41 H112        -1.4130     1.2480     5.1410 h1         1 PG6       0.028700
     42 H121        -1.2720    -1.0840     7.8530 h1         1 PG6       0.026867
     43 H122        -1.5620     0.6510     8.0780 h1         1 PG6       0.026867
     44 H123        -2.3820    -0.2220     6.7730 h1         1 PG6       0.026867
@<TRIPOS>BOND
     1     1     2 1   
     2     1    19 1   
     3     1    20 1   
     4     1    21 1   
     5     2     3 1   
     6     3     4 1   
     7     3    22 1   
     8     3    23 1   
     9     4     5 1   
    10     4    24 1   
    11     4    25 1   
    12     5     6 1   
    13     6     7 1   
    14     6    26 1   
    15     6    27 1   
    16     7     8 1   
    17     7    28 1   
    18     7    29 1   
    19     8     9 1   
    20     9    10 1   
    21     9    30 1   
    22     9    31 1   
    23    10    11 1   
    24    10    32 1   
    25    10    33 1   
    26    11    12 1   
    27    12    13 1   
    28    12    34 1   
    29    12    35 1   
    30    13    14 1   
    31    13    36 1   
    32    13    37 1   
    33    14    15 1   
    34    15    16 1   
    35    15    38 1   
    36    15    39 1   
    37    16    17 1   
    38    16    40 1   
    39    16    41 1   
    40    17    18 1   
    41    18    42 1   
    42    18    43 1   
    43    18    44 1   
@<TRIPOS>SUBSTRUCTURE
     1 PG6         1 TEMP              0 ****  ****    0 ROOT
