@<TRIPOS>MOLECULE
PG6
   44    43     1     0     0
SMALL
No Charge or Current Charge


@<TRIPOS>ATOM
      1 C1           1.0770    -0.4910    -7.9630 c3         1 PG6       0.145900
      2 O1           0.1730     0.0430    -6.9810 os         1 PG6      -0.442000
      3 C2           0.7610     1.0180    -6.0950 c3         1 PG6       0.159100
      4 C3          -0.3110     1.5030    -5.0900 c3         1 PG6       0.161600
      5 O2          -0.5870     0.4460    -4.1500 os         1 PG6      -0.434000
      6 C4          -1.5820     0.7730    -3.1590 c3         1 PG6       0.162100
      7 C5          -1.7710    -0.4360    -2.2130 c3         1 PG6       0.161600
      8 O3          -0.6100    -0.5570    -1.3670 os         1 PG6      -0.435000
      9 C6          -0.6590    -1.6610    -0.4400 c3         1 PG6       0.161600
     10 C7           0.6350    -1.6660     0.4080 c3         1 PG6       0.161600
     11 O4           0.5950    -0.5630     1.3360 os         1 PG6      -0.435000
     12 C8           1.7560    -0.4520     2.1820 c3         1 PG6       0.161600
     13 C9           1.5770     0.7580     3.1290 c3         1 PG6       0.162100
     14 O5           0.5800     0.4380     4.1200 os         1 PG6      -0.434000
     15 C10          0.3120     1.4960     5.0610 c3         1 PG6       0.161600
     16 C11         -0.7640     1.0180     6.0660 c3         1 PG6       0.159100
     17 O6          -0.1840     0.0380     6.9510 os         1 PG6      -0.442000
     18 C12         -1.0920    -0.4890     7.9320 c3         1 PG6       0.145900
     19 H11          1.9250    -0.9940    -7.4790 h1         1 PG6       0.026867
     20 H12          0.5620    -1.2220    -8.5980 h1         1 PG6       0.026867
     21 H13          1.4680     0.3070    -8.6080 h1         1 PG6       0.026867
     22 H21          1.6110     0.5910    -5.5470 h1         1 PG6       0.028700
     23 H22          1.1240     1.8810    -6.6680 h1         1 PG6       0.028700
     24 H31          0.0710     2.3870    -4.5650 h1         1 PG6       0.026200
     25 H32         -1.2190     1.7940    -5.6340 h1         1 PG6       0.026200
     26 H41         -1.2830     1.6540    -2.5750 h1         1 PG6       0.027700
     27 H42         -2.5420     0.9960    -3.6450 h1         1 PG6       0.027700
     28 H51         -2.6690    -0.2720    -1.6030 h1         1 PG6       0.027700
     29 H52         -1.9230    -1.3470    -2.8070 h1         1 PG6       0.027700
     30 H61         -1.5320    -1.5820     0.2210 h1         1 PG6       0.028200
     31 H62         -0.7290    -2.6110    -0.9860 h1         1 PG6       0.028200
     32 H71          0.6970    -2.6170     0.9530 h1         1 PG6       0.028200
     33 H72          1.5080    -1.5940    -0.2540 h1         1 PG6       0.028200
     34 H81          1.9020    -1.3650     2.7750 h1         1 PG6       0.027700
     35 H82          2.6560    -0.2940     1.5720 h1         1 PG6       0.027700
     36 H91          2.5380     0.9720     3.6150 h1         1 PG6       0.027700
     37 H92          1.2850     1.6410     2.5460 h1         1 PG6       0.027700
     38 H101         1.2230     1.7800     5.6050 h1         1 PG6       0.026200
     39 H102        -0.0630     2.3840     4.5360 h1         1 PG6       0.026200
     40 H111        -1.1210     1.8840     6.6390 h1         1 PG6       0.028700
     41 H112        -1.6180     0.5980     5.5170 h1         1 PG6       0.028700
     42 H121        -0.5830    -1.2250     8.5660 h1         1 PG6       0.026867
     43 H122        -1.4770     0.3110     8.5770 h1         1 PG6       0.026867
     44 H123        -1.9430    -0.9860     7.4480 h1         1 PG6       0.026867
@<TRIPOS>BOND
     1     1     2 1   
     2     1    19 1   
     3     1    20 1   
     4     1    21 1   
     5     2     3 1   
     6     3     4 1   
     7     3    22 1   
     8     3    23 1   
     9     4     5 1   
    10     4    24 1   
    11     4    25 1   
    12     5     6 1   
    13     6     7 1   
    14     6    26 1   
    15     6    27 1   
    16     7     8 1   
    17     7    28 1   
    18     7    29 1   
    19     8     9 1   
    20     9    10 1   
    21     9    30 1   
    22     9    31 1   
    23    10    11 1   
    24    10    32 1   
    25    10    33 1   
    26    11    12 1   
    27    12    13 1   
    28    12    34 1   
    29    12    35 1   
    30    13    14 1   
    31    13    36 1   
    32    13    37 1   
    33    14    15 1   
    34    15    16 1   
    35    15    38 1   
    36    15    39 1   
    37    16    17 1   
    38    16    40 1   
    39    16    41 1   
    40    17    18 1   
    41    18    42 1   
    42    18    43 1   
    43    18    44 1   
@<TRIPOS>SUBSTRUCTURE
     1 PG6         1 TEMP              0 ****  ****    0 ROOT
