@<TRIPOS>MOLECULE
PG8
   75    74     1     0     0
SMALL
No Charge or Current Charge


@<TRIPOS>ATOM
      1 O1           0.1150    -2.5440     2.1160 o          1 PG8      -0.824000
      2 O2           2.2310    -2.0420     0.9660 o          1 PG8      -0.824000
      3 P1           0.8940    -1.5140     1.3670 p5         1 PG8       1.382800
      4 O3           0.0800    -0.9780     0.0870 os         1 PG8      -0.571400
      5 C1           0.7440    -0.1540    -0.8810 c3         1 PG8       0.188600
      6 C2          -0.3140     0.6670    -1.6700 c3         1 PG8       0.160300
      7 C3           0.3380     1.7950    -2.5090 c3         1 PG8       0.116600
      8 O4          -0.6570     2.4650    -3.3030 oh         1 PG8      -0.651000
      9 O5          -1.0690    -0.1760    -2.5630 oh         1 PG8      -0.633000
     10 O6           1.0380    -0.1460     2.2190 os         1 PG8      -0.578400
     11 C4           0.0570     0.2970     3.1840 c3         1 PG8       0.197600
     12 C5          -1.0390     1.2440     2.5840 c3         1 PG8       0.151300
     13 C6          -0.5820     2.6520     2.0900 c3         1 PG8       0.174600
     14 O7           0.5980     2.6040     1.2530 os         1 PG8      -0.435100
     15 C7           1.8340     2.7210     1.8430 c          1 PG8       0.618100
     16 O8           2.0110     2.9990     3.0220 o          1 PG8      -0.489000
     17 C8           2.9550     2.7730     0.8000 c3         1 PG8      -0.132400
     18 C9           3.9240     1.5730     0.9310 c3         1 PG8      -0.072400
     19 C10          5.0120     1.5580    -0.1650 c3         1 PG8      -0.073400
     20 C11          5.9760     0.3590    -0.0420 c3         1 PG8      -0.075400
     21 C12          7.0620     0.3420    -1.1390 c3         1 PG8      -0.082400
     22 C13          8.0270    -0.8570    -1.0170 c3         1 PG8      -0.074400
     23 C14          9.1110    -0.8740    -2.1120 c3         1 PG8      -0.088100
     24 O9          -1.7780     0.6010     1.5220 os         1 PG8      -0.420100
     25 C15         -2.6370    -0.4240     1.8280 c          1 PG8       0.602100
     26 O10         -2.9650    -0.7360     2.9660 o          1 PG8      -0.509000
     27 C16         -3.3430    -0.9540     0.5790 c3         1 PG8      -0.140400
     28 C17         -4.5760    -0.0910     0.2190 c3         1 PG8      -0.067400
     29 C18         -5.2990    -0.5770    -1.0560 c3         1 PG8      -0.076400
     30 C19         -6.5280     0.2850    -1.4190 c3         1 PG8      -0.074400
     31 C20         -7.2510    -0.2000    -2.6940 c3         1 PG8      -0.076400
     32 C21         -8.4790     0.6630    -3.0570 c3         1 PG8      -0.075400
     33 C22         -9.2010     0.1790    -4.3300 c3         1 PG8      -0.088100
     34 H1           1.4290     0.5430    -0.3850 h1         1 PG8       0.022200
     35 H2           1.3330    -0.7670    -1.5770 h1         1 PG8       0.022200
     36 H3          -0.9820     1.1450    -0.9400 h1         1 PG8       0.086700
     37 H4           0.8230     2.5090    -1.8330 h1         1 PG8       0.017200
     38 H5           1.1150     1.3660    -3.1570 h1         1 PG8       0.017200
     39 H6          -0.2070     3.2030    -3.7700 ho         1 PG8       0.426000
     40 H7          -1.4100     0.4440    -3.2460 ho         1 PG8       0.430000
     41 H8           0.5640     0.8390     3.9930 h1         1 PG8       0.043200
     42 H9          -0.4340    -0.5600     3.6600 h1         1 PG8       0.043200
     43 H10         -1.7350     1.4590     3.4060 h1         1 PG8       0.047700
     44 H11         -0.4310     3.3110     2.9540 h1         1 PG8       0.052200
     45 H12         -1.4120     3.0860     1.5180 h1         1 PG8       0.052200
     46 H13          3.5240     3.6980     0.9450 hc         1 PG8       0.069200
     47 H14          2.5200     2.7570    -0.2050 hc         1 PG8       0.069200
     48 H15          3.3560     0.6370     0.8830 hc         1 PG8       0.067700
     49 H16          4.4020     1.6010     1.9180 hc         1 PG8       0.067700
     50 H17          5.5870     2.4910    -0.1140 hc         1 PG8       0.031700
     51 H18          4.5300     1.5310    -1.1500 hc         1 PG8       0.031700
     52 H19          5.4000    -0.5740    -0.0910 hc         1 PG8       0.041200
     53 H20          6.4590     0.3840     0.9430 hc         1 PG8       0.041200
     54 H21          7.6390     1.2740    -1.0900 hc         1 PG8       0.040200
     55 H22          6.5790     0.3160    -2.1240 hc         1 PG8       0.040200
     56 H23          7.4550    -1.7920    -1.0680 hc         1 PG8       0.033700
     57 H24          8.5150    -0.8340    -0.0340 hc         1 PG8       0.033700
     58 H25          9.7700    -1.7410    -1.9840 hc         1 PG8       0.026367
     59 H26          8.6550    -0.9330    -3.1080 hc         1 PG8       0.026367
     60 H27          9.7250     0.0330    -2.0650 hc         1 PG8       0.026367
     61 H28         -2.6500    -0.9040    -0.2670 hc         1 PG8       0.075200
     62 H29         -3.6630    -1.9870     0.7570 hc         1 PG8       0.075200
     63 H30         -5.2800    -0.0990     1.0610 hc         1 PG8       0.049200
     64 H31         -4.2580     0.9500     0.0780 hc         1 PG8       0.049200
     65 H32         -4.5930    -0.5690    -1.8960 hc         1 PG8       0.037700
     66 H33         -5.6180    -1.6180    -0.9150 hc         1 PG8       0.037700
     67 H34         -7.2340     0.2770    -0.5790 hc         1 PG8       0.036700
     68 H35         -6.2080     1.3260    -1.5590 hc         1 PG8       0.036700
     69 H36         -6.5440    -0.1920    -3.5340 hc         1 PG8       0.036700
     70 H37         -7.5700    -1.2400    -2.5540 hc         1 PG8       0.036700
     71 H38         -9.1890     0.6560    -2.2210 hc         1 PG8       0.035200
     72 H39         -8.1630     1.7040    -3.2010 hc         1 PG8       0.035200
     73 H40         -9.5610    -0.8490    -4.2050 hc         1 PG8       0.028367
     74 H41        -10.0640     0.8210    -4.5470 hc         1 PG8       0.028367
     75 H42         -8.5260     0.2080    -5.1940 hc         1 PG8       0.028367
@<TRIPOS>BOND
     1     1     3 1   
     2     2     3 1   
     3     3     4 1   
     4     3    10 1   
     5     4     5 1   
     6     5     6 1   
     7     5    34 1   
     8     5    35 1   
     9     6     7 1   
    10     6     9 1   
    11     6    36 1   
    12     7     8 1   
    13     7    37 1   
    14     7    38 1   
    15     8    39 1   
    16     9    40 1   
    17    10    11 1   
    18    11    12 1   
    19    11    41 1   
    20    11    42 1   
    21    12    13 1   
    22    12    24 1   
    23    12    43 1   
    24    13    14 1   
    25    13    44 1   
    26    13    45 1   
    27    14    15 1   
    28    15    16 2   
    29    15    17 1   
    30    17    18 1   
    31    17    46 1   
    32    17    47 1   
    33    18    19 1   
    34    18    48 1   
    35    18    49 1   
    36    19    20 1   
    37    19    50 1   
    38    19    51 1   
    39    20    21 1   
    40    20    52 1   
    41    20    53 1   
    42    21    22 1   
    43    21    54 1   
    44    21    55 1   
    45    22    23 1   
    46    22    56 1   
    47    22    57 1   
    48    23    58 1   
    49    23    59 1   
    50    23    60 1   
    51    24    25 1   
    52    25    26 2   
    53    25    27 1   
    54    27    28 1   
    55    27    61 1   
    56    27    62 1   
    57    28    29 1   
    58    28    63 1   
    59    28    64 1   
    60    29    30 1   
    61    29    65 1   
    62    29    66 1   
    63    30    31 1   
    64    30    67 1   
    65    30    68 1   
    66    31    32 1   
    67    31    69 1   
    68    31    70 1   
    69    32    33 1   
    70    32    71 1   
    71    32    72 1   
    72    33    73 1   
    73    33    74 1   
    74    33    75 1   
@<TRIPOS>SUBSTRUCTURE
     1 PG8         1 TEMP              0 ****  ****    0 ROOT
