@<TRIPOS>MOLECULE
PG8
   75    74     1     0     0
SMALL
abcg2


@<TRIPOS>ATOM
      1 O1           0.1610    -2.6880     1.2540 o          1 PG8      -0.824000
      2 O2           2.2540    -1.6290     2.3450 o          1 PG8      -0.824000
      3 P1           1.0750    -1.5110     1.4290 p5         1 PG8       1.382800
      4 O3           1.5490    -0.9420    -0.0350 os         1 PG8      -0.571400
      5 C1           2.5870    -1.6500    -0.6780 c3         1 PG8       0.188600
      6 C2           2.8420    -1.0470    -2.0490 c3         1 PG8       0.160300
      7 C3           4.0500    -1.7190    -2.6830 c3         1 PG8       0.116600
      8 O4           4.3530    -1.0730    -3.8960 oh         1 PG8      -0.651000
      9 O5           1.7050    -1.0900    -2.8770 oh         1 PG8      -0.633000
     10 O6           0.1880    -0.1750     1.7830 os         1 PG8      -0.578400
     11 C4          -0.6100    -0.2230     2.9440 c3         1 PG8       0.197600
     12 C5          -1.4600     1.0320     3.0450 c3         1 PG8       0.151300
     13 C6          -0.7010     2.3110     3.3390 c3         1 PG8       0.174600
     14 O7           0.2480     2.6170     2.3260 os         1 PG8      -0.435100
     15 C7           1.5200     2.2430     2.4940 c          1 PG8       0.618100
     16 O8           1.9660     1.8430     3.5380 o          1 PG8      -0.489000
     17 C8           2.3060     2.4330     1.2300 c3         1 PG8      -0.132400
     18 C9           3.6660     1.7530     1.2430 c3         1 PG8      -0.072400
     19 C10          4.3980     1.9660    -0.0760 c3         1 PG8      -0.073400
     20 C11          5.5960     1.0450    -0.2610 c3         1 PG8      -0.075400
     21 C12          6.2480     1.1850    -1.6300 c3         1 PG8      -0.082400
     22 C13          7.4170     0.2320    -1.8450 c3         1 PG8      -0.074400
     23 C14          7.9970     0.3230    -3.2500 c3         1 PG8      -0.088100
     24 O9          -2.1910     1.2480     1.8320 os         1 PG8      -0.420100
     25 C15         -3.3330     0.5950     1.6380 c          1 PG8       0.602100
     26 O10         -3.8070    -0.1720     2.4390 o          1 PG8      -0.509000
     27 C16         -3.9390     0.9290     0.3020 c3         1 PG8      -0.140400
     28 C17         -5.4140     0.5680     0.2020 c3         1 PG8      -0.067400
     29 C18         -6.0080     0.9510    -1.1480 c3         1 PG8      -0.076400
     30 C19         -7.4980     0.6420    -1.2410 c3         1 PG8      -0.074400
     31 C20         -8.1120     1.0380    -2.5780 c3         1 PG8      -0.076400
     32 C21         -9.6070     0.7540    -2.6610 c3         1 PG8      -0.075400
     33 C22        -10.2120     1.1610    -3.9970 c3         1 PG8      -0.088100
     34 H1           3.5100    -1.6090    -0.0890 h1         1 PG8       0.022200
     35 H2           2.3280    -2.7130    -0.7920 h1         1 PG8       0.022200
     36 H3           3.0740     0.0160    -1.9210 h1         1 PG8       0.086700
     37 H4           4.8910    -1.6660    -1.9780 h1         1 PG8       0.017200
     38 H5           3.8340    -2.7860    -2.8380 h1         1 PG8       0.017200
     39 H6           5.1290    -1.4960    -4.2720 ho         1 PG8       0.426000
     40 H7           1.4580    -2.0120    -3.0110 ho         1 PG8       0.430000
     41 H8          -0.0010    -0.2900     3.8530 h1         1 PG8       0.043200
     42 H9          -1.2660    -1.0990     2.9290 h1         1 PG8       0.043200
     43 H10         -2.1500     0.8910     3.8830 h1         1 PG8       0.047700
     44 H11         -0.2330     2.2280     4.3200 h1         1 PG8       0.052200
     45 H12         -1.3990     3.1480     3.3730 h1         1 PG8       0.052200
     46 H13          2.4110     3.5090     1.0500 hc         1 PG8       0.069200
     47 H14          1.7120     2.0460     0.4000 hc         1 PG8       0.069200
     48 H15          3.5210     0.6850     1.4200 hc         1 PG8       0.067700
     49 H16          4.2740     2.1290     2.0690 hc         1 PG8       0.067700
     50 H17          4.7170     3.0110    -0.1600 hc         1 PG8       0.031700
     51 H18          3.6980     1.8050    -0.9030 hc         1 PG8       0.031700
     52 H19          5.2690     0.0080    -0.1240 hc         1 PG8       0.041200
     53 H20          6.3360     1.2330     0.5250 hc         1 PG8       0.041200
     54 H21          6.5870     2.2170    -1.7720 hc         1 PG8       0.040200
     55 H22          5.4960     1.0030    -2.4070 hc         1 PG8       0.040200
     56 H23          7.0870    -0.7940    -1.6540 hc         1 PG8       0.033700
     57 H24          8.1980     0.4380    -1.1060 hc         1 PG8       0.033700
     58 H25          8.8330    -0.3630    -3.3890 hc         1 PG8       0.026367
     59 H26          7.2400     0.0790    -3.9980 hc         1 PG8       0.026367
     60 H27          8.3560     1.3320    -3.4640 hc         1 PG8       0.026367
     61 H28         -3.7860     1.9900     0.0930 hc         1 PG8       0.075200
     62 H29         -3.3650     0.3920    -0.4620 hc         1 PG8       0.075200
     63 H30         -5.5470    -0.5040     0.3680 hc         1 PG8       0.049200
     64 H31         -5.9690     1.0760     0.9960 hc         1 PG8       0.049200
     65 H32         -5.8490     2.0190    -1.3270 hc         1 PG8       0.037700
     66 H33         -5.4750     0.4250    -1.9470 hc         1 PG8       0.037700
     67 H34         -7.6590    -0.4270    -1.0680 hc         1 PG8       0.036700
     68 H35         -8.0230     1.1630    -0.4330 hc         1 PG8       0.036700
     69 H36         -7.9370     2.1050    -2.7560 hc         1 PG8       0.036700
     70 H37         -7.5970     0.5080    -3.3870 hc         1 PG8       0.036700
     71 H38         -9.7830    -0.3120    -2.4860 hc         1 PG8       0.035200
     72 H39        -10.1190     1.2820    -1.8500 hc         1 PG8       0.035200
     73 H40         -9.7380     0.6270    -4.8240 hc         1 PG8       0.028367
     74 H41        -11.2810     0.9500    -4.0370 hc         1 PG8       0.028367
     75 H42        -10.0800     2.2290    -4.1790 hc         1 PG8       0.028367
@<TRIPOS>BOND
     1     1     3 1   
     2     2     3 1   
     3     3     4 1   
     4     3    10 1   
     5     4     5 1   
     6     5     6 1   
     7     5    34 1   
     8     5    35 1   
     9     6     7 1   
    10     6     9 1   
    11     6    36 1   
    12     7     8 1   
    13     7    37 1   
    14     7    38 1   
    15     8    39 1   
    16     9    40 1   
    17    10    11 1   
    18    11    12 1   
    19    11    41 1   
    20    11    42 1   
    21    12    13 1   
    22    12    24 1   
    23    12    43 1   
    24    13    14 1   
    25    13    44 1   
    26    13    45 1   
    27    14    15 1   
    28    15    16 2   
    29    15    17 1   
    30    17    18 1   
    31    17    46 1   
    32    17    47 1   
    33    18    19 1   
    34    18    48 1   
    35    18    49 1   
    36    19    20 1   
    37    19    50 1   
    38    19    51 1   
    39    20    21 1   
    40    20    52 1   
    41    20    53 1   
    42    21    22 1   
    43    21    54 1   
    44    21    55 1   
    45    22    23 1   
    46    22    56 1   
    47    22    57 1   
    48    23    58 1   
    49    23    59 1   
    50    23    60 1   
    51    24    25 1   
    52    25    26 2   
    53    25    27 1   
    54    27    28 1   
    55    27    61 1   
    56    27    62 1   
    57    28    29 1   
    58    28    63 1   
    59    28    64 1   
    60    29    30 1   
    61    29    65 1   
    62    29    66 1   
    63    30    31 1   
    64    30    67 1   
    65    30    68 1   
    66    31    32 1   
    67    31    69 1   
    68    31    70 1   
    69    32    33 1   
    70    32    71 1   
    71    32    72 1   
    72    33    73 1   
    73    33    74 1   
    74    33    75 1   
@<TRIPOS>SUBSTRUCTURE
     1 PG8         1 TEMP              0 ****  ****    0 ROOT
