@<TRIPOS>MOLECULE
PG9
   19    19     1     0     0
SMALL
No Charge or Current Charge


@<TRIPOS>ATOM
      1 N           29.1140    44.9960   189.8200 n8         1 PG9      -0.886800
      2 CA          28.8390    46.3690   190.3980 c3         1 PG9       0.033800
      3 CB          29.5110    46.5240   191.7650 ca         1 PG9      -0.003300
      4 CG1         30.5660    47.4440   191.9380 ca         1 PG9      -0.119000
      5 CD1         31.1830    47.5940   193.1930 ca         1 PG9      -0.146000
      6 CE          30.7500    46.8250   194.2860 ca         1 PG9      -0.167000
      7 CD2         29.7020    45.9050   194.1240 ca         1 PG9      -0.146000
      8 CG2         29.0850    45.7540   192.8690 ca         1 PG9      -0.119000
      9 C           27.3240    46.8450   190.4800 c          1 PG9       0.912600
     10 O           27.0660    48.0260   190.2670 o          1 PG9      -0.824800
     11 OXT         26.4500    46.0130   190.7080 o          1 PG9      -0.824800
     12 H           28.6260    44.2990   190.3920 hn         1 PG9       0.330800
     13 H2          28.6620    44.9220   188.9020 hn         1 PG9       0.330800
     14 HA          29.3210    47.0790   189.7120 h1         1 PG9       0.044700
     15 HG1         30.9080    48.0440   191.0980 ha         1 PG9       0.136000
     16 HD1         31.9950    48.3070   193.3170 ha         1 PG9       0.104500
     17 HE          31.2280    46.9420   195.2570 ha         1 PG9       0.102000
     18 HD2         29.3660    45.3080   194.9690 ha         1 PG9       0.104500
     19 HG2         28.2740    45.0390   192.7540 ha         1 PG9       0.136000
@<TRIPOS>BOND
     1     1     2 1   
     2     1    12 1   
     3     1    13 1   
     4     2     3 1   
     5     2     9 1   
     6     2    14 1   
     7     3     4 ar  
     8     3     8 ar  
     9     4     5 ar  
    10     4    15 1   
    11     5     6 ar  
    12     5    16 1   
    13     6     7 ar  
    14     6    17 1   
    15     7     8 ar  
    16     7    18 1   
    17     8    19 1   
    18     9    10 1   
    19     9    11 1   
@<TRIPOS>SUBSTRUCTURE
     1 PG9         1 TEMP              0 ****  ****    0 ROOT
