@<TRIPOS>MOLECULE
PG9
   19    19     1     0     0
SMALL
bcc


@<TRIPOS>ATOM
      1 N           28.6650    44.8000   190.1220 n8         1 PG9      -0.886800
      2 CA          28.9030    46.2080   190.3960 c3         1 PG9       0.033800
      3 CB          29.5640    46.4130   191.7400 ca         1 PG9      -0.003300
      4 CG1         30.3040    47.5690   191.9910 ca         1 PG9      -0.119000
      5 CD1         30.8750    47.7970   193.2350 ca         1 PG9      -0.146000
      6 CE          30.7100    46.8750   194.2610 ca         1 PG9      -0.167000
      7 CD2         29.9770    45.7210   194.0230 ca         1 PG9      -0.146000
      8 CG2         29.4140    45.4910   192.7730 ca         1 PG9      -0.119000
      9 C           27.6100    47.0890   190.3890 c          1 PG9       0.912600
     10 O           27.7700    48.3040   190.1770 o          1 PG9      -0.824800
     11 OXT         26.5430    46.4940   190.6310 o          1 PG9      -0.824800
     12 H           27.7520    44.5750   190.5050 hn         1 PG9       0.330800
     13 H2          28.5540    44.6860   189.1220 hn         1 PG9       0.330800
     14 HA          29.5780    46.5980   189.6300 h1         1 PG9       0.044700
     15 HG1         30.4400    48.2970   191.2010 ha         1 PG9       0.136000
     16 HD1         31.4530    48.6970   193.4030 ha         1 PG9       0.104500
     17 HE          31.1520    47.0530   195.2330 ha         1 PG9       0.102000
     18 HD2         29.8440    44.9920   194.8130 ha         1 PG9       0.104500
     19 HG2         28.8610    44.5770   192.6030 ha         1 PG9       0.136000
@<TRIPOS>BOND
     1     1     2 1   
     2     1    12 1   
     3     1    13 1   
     4     2     3 1   
     5     2     9 1   
     6     2    14 1   
     7     3     4 ar  
     8     3     8 ar  
     9     4     5 ar  
    10     4    15 1   
    11     5     6 ar  
    12     5    16 1   
    13     6     7 ar  
    14     6    17 1   
    15     7     8 ar  
    16     7    18 1   
    17     8    19 1   
    18     9    10 1   
    19     9    11 1   
@<TRIPOS>SUBSTRUCTURE
     1 PG9         1 TEMP              0 ****  ****    0 ROOT
