@<TRIPOS>MOLECULE
PGA
   11    10     1     0     0
SMALL
No Charge or Current Charge


@<TRIPOS>ATOM
      1 P            7.9520    -1.7850    18.5200 p5         1 PGA       1.305900
      2 O1P          7.9280    -2.0120    16.9260 os         1 PGA      -0.593400
      3 O2P          8.8090    -0.6160    18.8560 o          1 PGA      -0.959833
      4 O3P          8.4650    -3.0060    19.2000 o          1 PGA      -0.959833
      5 O4P          6.5640    -1.5190    18.9850 o          1 PGA      -0.959833
      6 C2           9.1610    -2.2920    16.2110 c3         1 PGA       0.131600
      7 C1           8.9960    -2.4930    14.6490 c          1 PGA       0.691000
      8 O1          10.0020    -2.7330    13.9910 o          1 PGA      -0.805500
      9 O2           7.8900    -2.4100    14.1240 o          1 PGA      -0.805500
     10 H21          9.8740    -1.4700    16.3640 h1         1 PGA      -0.022300
     11 H22          9.6240    -3.2040    16.6130 h1         1 PGA      -0.022300
@<TRIPOS>BOND
     1     1     2 1   
     2     1     3 1   
     3     1     4 1   
     4     1     5 1   
     5     2     6 1   
     6     6     7 1   
     7     6    10 1   
     8     6    11 1   
     9     7     8 1   
    10     7     9 1   
@<TRIPOS>SUBSTRUCTURE
     1 PGA         1 TEMP              0 ****  ****    0 ROOT
