@<TRIPOS>MOLECULE
PGA
   11    10     1     0     0
SMALL
abcg2


@<TRIPOS>ATOM
      1 P            7.9790    -1.7670    18.5520 p5         1 PGA       1.305900
      2 O1P          7.9160    -2.1270    16.9140 os         1 PGA      -0.593400
      3 O2P          8.8130    -0.4910    18.6620 o          1 PGA      -0.959833
      4 O3P          8.6260    -2.9740    19.2310 o          1 PGA      -0.959833
      5 O4P          6.5030    -1.5790    18.8830 o          1 PGA      -0.959833
      6 C2           9.1250    -2.3620    16.2290 c3         1 PGA       0.131600
      7 C1           8.9730    -2.4360    14.6990 c          1 PGA       0.691000
      8 O1          10.0430    -2.7110    14.0900 o          1 PGA      -0.805500
      9 O2           7.8550    -2.2230    14.1740 o          1 PGA      -0.805500
     10 H21          9.8490    -1.5660    16.4460 h1         1 PGA      -0.022300
     11 H22          9.5820    -3.3030    16.5590 h1         1 PGA      -0.022300
@<TRIPOS>BOND
     1     1     2 1   
     2     1     3 1   
     3     1     4 1   
     4     1     5 1   
     5     2     6 1   
     6     6     7 1   
     7     6    10 1   
     8     6    11 1   
     9     7     8 1   
    10     7     9 1   
@<TRIPOS>SUBSTRUCTURE
     1 PGA         1 TEMP              0 ****  ****    0 ROOT
