@<TRIPOS>MOLECULE
PGD
   69    74     1     0     0
SMALL
No Charge or Current Charge


@<TRIPOS>ATOM
      1 PB           2.6770     0.6180    -1.5760 p5         1 PGD       1.447800
      2 O1B          3.5260    -0.5680    -1.9030 o          1 PGD      -0.845000
      3 O2B          3.2240     1.8870    -2.1390 o          1 PGD      -0.845000
      4 O3B          2.3040     0.6560    -0.0430 os         1 PGD      -0.683800
      5 O3A          2.9730     0.8420     2.2430 os         1 PGD      -0.562400
      6 PA           3.3380     1.4860     0.8110 p5         1 PGD       1.452800
      7 O1A          3.0330     2.9470     0.8280 o          1 PGD      -0.846000
      8 O2A          4.7710     1.1890     0.5160 o          1 PGD      -0.846000
      9 O5           1.1750     0.3620    -2.1090 os         1 PGD      -0.552400
     10 C5           0.2200     1.4330    -2.1940 c3         1 PGD       0.219600
     11 C4           0.4520     2.3200    -3.4620 c5         1 PGD       0.125300
     12 O4           0.7630     1.5020    -4.6260 os         1 PGD      -0.403000
     13 C3          -0.8030     3.1480    -3.8860 c5         1 PGD       0.106300
     14 O3          -0.4830     4.2510    -4.7430 oh         1 PGD      -0.700000
     15 C2          -1.5910     2.0590    -4.6710 c5         1 PGD       0.067300
     16 O2          -2.6000     2.6450    -5.5210 oh         1 PGD      -0.710000
     17 C1          -0.4180     1.3670    -5.4540 c5         1 PGD       0.314300
     18 N9          -0.5930    -0.0320    -5.8360 na         1 PGD      -0.168500
     19 C8          -1.1460    -1.0370    -5.0650 cc         1 PGD       0.444400
     20 N7          -1.2130    -2.1870    -5.7360 nd         1 PGD      -0.625000
     21 C7          -0.6840    -1.9070    -6.9920 cd         1 PGD       0.091500
     22 C6          -0.4880    -2.7760    -8.1920 c          1 PGD       0.521500
     23 O6          -0.7810    -3.9620    -8.2730 o          1 PGD      -0.546000
     24 N1           0.0690    -2.0960    -9.2370 ns         1 PGD      -0.460400
     25 C15          0.3950    -0.7880    -9.1820 cd         1 PGD       0.705800
     26 N2           0.9310    -0.2560   -10.2680 nv         1 PGD      -1.055200
     27 N3           0.2470     0.0260    -8.1650 nc         1 PGD      -0.674100
     28 C9          -0.3060    -0.5870    -7.0570 cc         1 PGD       0.132400
     29 C10          1.6500     0.9980     2.7760 c3         1 PGD       0.234600
     30 C11          0.8750    -0.3580     2.6610 c6         1 PGD       0.205500
     31 O11          1.1840    -1.0940     3.8740 os         1 PGD      -0.405000
     32 C12         -0.6390    -0.1560     2.4900 c2         1 PGD      -0.012600
     33 S12         -1.0980     0.7670     1.0180 sh         1 PGD      -0.345400
     34 C13         -1.5410    -0.7320     3.3040 c2         1 PGD       0.050400
     35 S13         -3.3150    -0.5940     3.0840 sh         1 PGD      -0.331400
     36 C14         -1.1350    -1.6390     4.4560 c6         1 PGD       0.106700
     37 N15         -1.2880    -0.9670     5.7780 n2         1 PGD      -0.445900
     38 C16         -0.4400    -1.2810     6.7390 cc         1 PGD       0.216000
     39 C17         -0.5260    -0.7020     8.0920 c          1 PGD       0.655200
     40 O17         -1.3740     0.1000     8.4610 o          1 PGD      -0.521100
     41 N18          0.4400    -1.1300     8.9700 nc         1 PGD      -0.836100
     42 C19          1.3710    -1.9640     8.6490 cd         1 PGD       0.955200
     43 N19          2.1950    -2.2860     9.5870 nv         1 PGD      -1.017200
     44 N20          1.5510    -2.5830     7.4650 nd         1 PGD      -0.852000
     45 C21          0.6550    -2.2060     6.5900 cc         1 PGD       0.655900
     46 N22          0.8580    -2.7950     5.3830 nu         1 PGD      -0.851400
     47 C23          0.3120    -2.1860     4.1780 c6         1 PGD       0.435500
     48 H5'1         0.2780     2.0740    -1.3060 h1         1 PGD       0.010700
     49 H5'2        -0.7910     1.0090    -2.2200 h1         1 PGD       0.010700
     50 H4           1.2970     2.9920    -3.2590 h1         1 PGD       0.144700
     51 H3          -1.3660     3.4990    -3.0090 h1         1 PGD       0.050700
     52 HO3         -1.2100     4.2570    -5.4120 ho         1 PGD       0.495000
     53 H2          -2.0570     1.3490    -3.9740 h1         1 PGD       0.059700
     54 HO2         -3.4380     2.6990    -5.0000 ho         1 PGD       0.499000
     55 H1          -0.2480     1.9160    -6.3890 h2         1 PGD       0.097700
     56 H8          -1.4670    -0.8750    -4.0420 h5         1 PGD       0.097100
     57 HN1          0.2130    -2.6150   -10.0880 hn         1 PGD       0.305500
     58 HN21         1.3350     0.6600   -10.1150 hn         1 PGD       0.488500
     59 HN22         1.4580    -0.8700   -10.8780 hn         1 PGD       0.488500
     60 H101         1.6940     1.2980     3.8310 h1         1 PGD       0.037200
     61 H102         1.1040     1.7880     2.2440 h1         1 PGD       0.037200
     62 H11          1.2530    -0.9260     1.7990 h1         1 PGD       0.055700
     63 H12          0.1470     0.8370     0.4740 hs         1 PGD       0.227800
     64 H13         -3.2590     0.2210     2.0020 hs         1 PGD       0.217800
     65 H14         -1.8070    -2.5090     4.4590 h1         1 PGD       0.084700
     66 H191         1.8120    -2.1090    10.5020 hn         1 PGD       0.503000
     67 H192         2.6080    -3.1940     9.4450 hn         1 PGD       0.503000
     68 H22          1.7920    -3.1880     5.3390 hn         1 PGD       0.520000
     69 H23          0.2960    -2.8980     3.3380 h2         1 PGD       0.059700
@<TRIPOS>BOND
     1     1     2 1   
     2     1     3 1   
     3     1     4 1   
     4     1     9 1   
     5     4     6 1   
     6     5     6 1   
     7     5    29 1   
     8     6     7 1   
     9     6     8 1   
    10     9    10 1   
    11    10    11 1   
    12    10    48 1   
    13    10    49 1   
    14    11    12 1   
    15    11    13 1   
    16    11    50 1   
    17    12    17 1   
    18    13    14 1   
    19    13    15 1   
    20    13    51 1   
    21    14    52 1   
    22    15    16 1   
    23    15    17 1   
    24    15    53 1   
    25    16    54 1   
    26    17    18 1   
    27    17    55 1   
    28    18    19 1   
    29    18    28 1   
    30    19    20 2   
    31    19    56 1   
    32    20    21 1   
    33    21    22 1   
    34    21    28 2   
    35    22    23 2   
    36    22    24 1   
    37    24    25 1   
    38    24    57 1   
    39    25    26 1   
    40    25    27 2   
    41    26    58 1   
    42    26    59 1   
    43    27    28 1   
    44    29    30 1   
    45    29    60 1   
    46    29    61 1   
    47    30    31 1   
    48    30    32 1   
    49    30    62 1   
    50    31    47 1   
    51    32    33 1   
    52    32    34 2   
    53    33    63 1   
    54    34    35 1   
    55    34    36 1   
    56    35    64 1   
    57    36    37 1   
    58    36    47 1   
    59    36    65 1   
    60    37    38 2   
    61    38    39 1   
    62    38    45 1   
    63    39    40 2   
    64    39    41 1   
    65    41    42 2   
    66    42    43 1   
    67    42    44 1   
    68    43    66 1   
    69    43    67 1   
    70    44    45 2   
    71    45    46 1   
    72    46    47 1   
    73    46    68 1   
    74    47    69 1   
@<TRIPOS>SUBSTRUCTURE
     1 PGD         1 TEMP              0 ****  ****    0 ROOT
