@<TRIPOS>MOLECULE
PGD
   69    74     1     0     0
SMALL
bcc


@<TRIPOS>ATOM
      1 PB          -1.2860     3.5470    -0.9100 p5         1 PGD       1.447800
      2 O1B          0.1520     3.8510    -0.6260 o          1 PGD      -0.845000
      3 O2B         -2.3010     4.6450    -0.9420 o          1 PGD      -0.845000
      4 O3B         -1.8020     2.3110     0.0390 os         1 PGD      -0.683800
      5 O3A         -1.9040     1.1250     2.1200 os         1 PGD      -0.539200
      6 PA          -2.5060     2.5330     1.5040 p5         1 PGD       1.452800
      7 O1A         -3.9920     2.4120     1.3750 o          1 PGD      -0.846000
      8 O2A         -1.8930     3.6950     2.2180 o          1 PGD      -0.846000
      9 O5          -1.4010     2.6570    -2.2940 os         1 PGD      -0.529200
     10 C5          -0.9890     3.2650    -3.4960 c3         1 PGD       0.196400
     11 C4           0.4760     2.9960    -3.8000 c5         1 PGD       0.102100
     12 O4           0.7490     1.5900    -3.7650 os         1 PGD      -0.356600
     13 C3           0.8620     3.4570    -5.1970 c5         1 PGD       0.083100
     14 O3           2.2350     3.7530    -5.2150 oh         1 PGD      -0.577800
     15 C2           0.5630     2.1980    -6.0150 c5         1 PGD       0.044100
     16 O2           1.2630     2.0910    -7.2180 oh         1 PGD      -0.587800
     17 C1           1.0180     1.1050    -5.0480 c5         1 PGD       0.261800
     18 N9           0.3350    -0.1520    -5.2330 na         1 PGD      -0.189900
     19 C8          -0.9790    -0.4320    -4.9460 cc         1 PGD       0.444400
     20 N7          -1.3130    -1.6480    -5.2480 nd         1 PGD      -0.625000
     21 C7          -0.1710    -2.2050    -5.7630 cd         1 PGD       0.156800
     22 C6           0.0760    -3.5160    -6.2640 c          1 PGD       0.664000
     23 O6          -0.6920    -4.4580    -6.3560 o          1 PGD      -0.621500
     24 N1           1.4080    -3.6390    -6.6820 ns         1 PGD      -0.527400
     25 C15          2.3630    -2.6650    -6.6260 cd         1 PGD       0.705800
     26 N2           3.5770    -2.9750    -7.1070 nv         1 PGD      -0.944800
     27 N3           2.1290    -1.4620    -6.1660 nc         1 PGD      -0.674100
     28 C9           0.8650    -1.2900    -5.7580 cc         1 PGD       0.117800
     29 C10         -2.2640     0.8070     3.4430 c3         1 PGD       0.211400
     30 C11         -2.0710    -0.6910     3.6400 c6         1 PGD       0.182300
     31 O11         -0.7230    -0.9570     3.3330 os         1 PGD      -0.358600
     32 C12         -2.4180    -1.1260     5.0480 c2         1 PGD      -0.012600
     33 S12         -3.9650    -0.5760     5.7020 sh         1 PGD      -0.345400
     34 C13         -1.5850    -1.8710     5.7820 c2         1 PGD       0.050400
     35 S13         -1.8220    -2.4160     7.4370 sh         1 PGD      -0.331400
     36 C14         -0.2770    -2.3620     5.2140 c6         1 PGD       0.106700
     37 N15          0.8190    -1.6790     5.8670 n2         1 PGD      -0.445900
     38 C16          1.8780    -1.4760     5.2100 cc         1 PGD       0.216000
     39 C17          3.0620    -0.8110     5.8680 c          1 PGD       0.655200
     40 O17          2.9230    -0.2970     6.9640 o          1 PGD      -0.521100
     41 N18          4.2320    -0.8380     5.2060 nc         1 PGD      -0.836100
     42 C19          4.2750    -1.3830     4.0000 cd         1 PGD       0.955200
     43 N19          5.4470    -1.4240     3.3860 nv         1 PGD      -0.906800
     44 N20          3.2490    -1.9090     3.2580 nd         1 PGD      -0.852000
     45 C21          2.0850    -1.9360     3.8180 cc         1 PGD       0.655900
     46 N22          1.0230    -2.4240     3.1850 nu         1 PGD      -0.796200
     47 C23         -0.2970    -2.2390     3.7010 c6         1 PGD       0.412300
     48 H5'1        -1.1460     4.3500    -3.4880 h1         1 PGD       0.010700
     49 H5'2        -1.6230     2.8690    -4.2960 h1         1 PGD       0.010700
     50 H4           1.0940     3.4800    -3.0400 h1         1 PGD       0.144700
     51 H3           0.2590     4.3130    -5.5290 h1         1 PGD       0.050700
     52 HO3          2.5330     3.7230    -6.1320 ho         1 PGD       0.396000
     53 H2          -0.5210     2.1200    -6.1700 h1         1 PGD       0.059700
     54 HO2          0.7930     2.5890    -7.8950 ho         1 PGD       0.400000
     55 H1           2.0840     0.8980    -5.1900 h2         1 PGD       0.097700
     56 H8          -1.6330     0.3010    -4.4980 h5         1 PGD       0.097100
     57 HN1          1.6660    -4.5430    -7.0570 hn         1 PGD       0.305500
     58 HN21         4.3270    -2.3330    -6.9120 hn         1 PGD       0.433300
     59 HN22         3.8430    -3.9330    -7.2550 hn         1 PGD       0.433300
     60 H101        -1.6450     1.3470     4.1690 h1         1 PGD       0.037200
     61 H102        -3.3080     1.0600     3.6460 h1         1 PGD       0.037200
     62 H11         -2.7310    -1.2270     2.9380 h1         1 PGD       0.055700
     63 H12         -4.7140    -0.8690     4.6300 hs         1 PGD       0.227800
     64 H13         -3.1330    -2.1560     7.5350 hs         1 PGD       0.217800
     65 H14         -0.1750    -3.4250     5.4710 h1         1 PGD       0.084700
     66 H191         6.2700    -1.0570     3.8340 hn         1 PGD       0.447800
     67 H192         5.5300    -1.8180     2.4650 hn         1 PGD       0.447800
     68 H22          1.1330    -2.7060     2.2200 hn         1 PGD       0.464800
     69 H23         -0.9450    -3.0130     3.2760 h2         1 PGD       0.059700
@<TRIPOS>BOND
     1     1     2 1   
     2     1     3 1   
     3     1     4 1   
     4     1     9 1   
     5     4     6 1   
     6     5     6 1   
     7     5    29 1   
     8     6     7 1   
     9     6     8 1   
    10     9    10 1   
    11    10    11 1   
    12    10    48 1   
    13    10    49 1   
    14    11    12 1   
    15    11    13 1   
    16    11    50 1   
    17    12    17 1   
    18    13    14 1   
    19    13    15 1   
    20    13    51 1   
    21    14    52 1   
    22    15    16 1   
    23    15    17 1   
    24    15    53 1   
    25    16    54 1   
    26    17    18 1   
    27    17    55 1   
    28    18    19 1   
    29    18    28 1   
    30    19    20 2   
    31    19    56 1   
    32    20    21 1   
    33    21    22 1   
    34    21    28 2   
    35    22    23 2   
    36    22    24 1   
    37    24    25 1   
    38    24    57 1   
    39    25    26 1   
    40    25    27 2   
    41    26    58 1   
    42    26    59 1   
    43    27    28 1   
    44    29    30 1   
    45    29    60 1   
    46    29    61 1   
    47    30    31 1   
    48    30    32 1   
    49    30    62 1   
    50    31    47 1   
    51    32    33 1   
    52    32    34 2   
    53    33    63 1   
    54    34    35 1   
    55    34    36 1   
    56    35    64 1   
    57    36    37 1   
    58    36    47 1   
    59    36    65 1   
    60    37    38 2   
    61    38    39 1   
    62    38    45 1   
    63    39    40 2   
    64    39    41 1   
    65    41    42 2   
    66    42    43 1   
    67    42    44 1   
    68    43    66 1   
    69    43    67 1   
    70    44    45 2   
    71    45    46 1   
    72    46    47 1   
    73    46    68 1   
    74    47    69 1   
@<TRIPOS>SUBSTRUCTURE
     1 PGD         1 TEMP              0 ****  ****    0 ROOT
