@<TRIPOS>MOLECULE
PGE
   24    23     1     0     0
SMALL
No Charge or Current Charge


@<TRIPOS>ATOM
      1 C1          17.8020   -19.3280    34.6070 c3         1 PGE       0.159600
      2 O1          16.3830   -19.5740    34.6880 oh         1 PGE      -0.715500
      3 C2          18.5620   -19.9400    35.8150 c3         1 PGE       0.160100
      4 O2          18.2000   -19.2220    37.0180 os         1 PGE      -0.457500
      5 C3          18.9390   -19.5600    38.2180 c3         1 PGE       0.149100
      6 C4          18.6270   -21.0080    38.6870 c3         1 PGE       0.149100
      7 O4          20.0320   -25.5810    37.7390 oh         1 PGE      -0.715500
      8 C6          20.1990   -24.1830    37.4410 c3         1 PGE       0.159600
      9 C5          19.2460   -23.3200    38.3030 c3         1 PGE       0.160100
     10 O3          19.4580   -21.9370    37.9620 os         1 PGE      -0.457500
     11 H1          18.2050   -19.7700    33.6860 h1         1 PGE       0.025950
     12 H12         18.0040   -18.2500    34.5680 h1         1 PGE       0.025950
     13 HO1         15.9680   -19.1020    33.9290 ho         1 PGE       0.502500
     14 H2          18.3080   -21.0050    35.8920 h1         1 PGE       0.035200
     15 H22         19.6420   -19.8570    35.6310 h1         1 PGE       0.035200
     16 H3          20.0200   -19.4430    38.0630 h1         1 PGE       0.039200
     17 H32         18.6500   -18.8740    39.0240 h1         1 PGE       0.039200
     18 H4          18.8340   -21.0800    39.7620 h1         1 PGE       0.039200
     19 H42         17.5610   -21.2230    38.5320 h1         1 PGE       0.039200
     20 HO4         20.6640   -26.0740    37.1630 ho         1 PGE       0.502500
     21 H6          21.2350   -23.8750    37.6390 h1         1 PGE       0.025950
     22 H62         19.9890   -23.9940    36.3800 h1         1 PGE       0.025950
     23 H5          18.2070   -23.6120    38.1010 h1         1 PGE       0.035200
     24 H52         19.4580   -23.4920    39.3660 h1         1 PGE       0.035200
@<TRIPOS>BOND
     1     1     2 1   
     2     1     3 1   
     3     1    11 1   
     4     1    12 1   
     5     2    13 1   
     6     3     4 1   
     7     3    14 1   
     8     3    15 1   
     9     4     5 1   
    10     5     6 1   
    11     5    16 1   
    12     5    17 1   
    13     6    10 1   
    14     6    18 1   
    15     6    19 1   
    16     7     8 1   
    17     7    20 1   
    18     8     9 1   
    19     8    21 1   
    20     8    22 1   
    21     9    10 1   
    22     9    23 1   
    23     9    24 1   
@<TRIPOS>SUBSTRUCTURE
     1 PGE         1 TEMP              0 ****  ****    0 ROOT
