@<TRIPOS>MOLECULE
PGE
   24    23     1     0     0
SMALL
abcg2


@<TRIPOS>ATOM
      1 C1          17.8480   -19.2410    34.6270 c3         1 PGE       0.159600
      2 O1          16.6770   -20.0190    34.5320 oh         1 PGE      -0.715500
      3 C2          18.6950   -19.7410    35.7700 c3         1 PGE       0.160100
      4 O2          18.0340   -19.4880    36.9880 os         1 PGE      -0.457500
      5 C3          18.8040   -19.6720    38.1510 c3         1 PGE       0.149100
      6 C4          18.7230   -21.0640    38.7360 c3         1 PGE       0.149100
      7 O4          19.9650   -25.5190    37.8810 oh         1 PGE      -0.715500
      8 C6          20.0000   -24.2060    37.3720 c3         1 PGE       0.159600
      9 C5          19.3110   -23.3070    38.3810 c3         1 PGE       0.160100
     10 O3          19.3800   -21.9870    37.9050 os         1 PGE      -0.457500
     11 H1          18.4570   -19.3070    33.7160 h1         1 PGE       0.025950
     12 H12         17.6210   -18.1780    34.7810 h1         1 PGE       0.025950
     13 HO1         16.1360   -19.6620    33.8230 ho         1 PGE       0.502500
     14 H2          18.9070   -20.8070    35.6320 h1         1 PGE       0.035200
     15 H22         19.6580   -19.2140    35.7330 h1         1 PGE       0.035200
     16 H3          19.8550   -19.4030    37.9780 h1         1 PGE       0.039200
     17 H32         18.4190   -18.9790    38.9040 h1         1 PGE       0.039200
     18 H4          19.1850   -21.0410    39.7340 h1         1 PGE       0.039200
     19 H42         17.6710   -21.3470    38.8810 h1         1 PGE       0.039200
     20 HO4         20.2650   -26.1170    37.1910 ho         1 PGE       0.502500
     21 H6          21.0290   -23.8550    37.2190 h1         1 PGE       0.025950
     22 H62         19.4840   -24.1250    36.4070 h1         1 PGE       0.025950
     23 H5          18.2680   -23.6260    38.5140 h1         1 PGE       0.035200
     24 H52         19.8030   -23.3980    39.3600 h1         1 PGE       0.035200
@<TRIPOS>BOND
     1     1     2 1   
     2     1     3 1   
     3     1    11 1   
     4     1    12 1   
     5     2    13 1   
     6     3     4 1   
     7     3    14 1   
     8     3    15 1   
     9     4     5 1   
    10     5     6 1   
    11     5    16 1   
    12     5    17 1   
    13     6    10 1   
    14     6    18 1   
    15     6    19 1   
    16     7     8 1   
    17     7    20 1   
    18     8     9 1   
    19     8    21 1   
    20     8    22 1   
    21     9    10 1   
    22     9    23 1   
    23     9    24 1   
@<TRIPOS>SUBSTRUCTURE
     1 PGE         1 TEMP              0 ****  ****    0 ROOT
