@<TRIPOS>MOLECULE
PGF
   33    32     1     0     0
SMALL
bcc


@<TRIPOS>ATOM
      1 C7          -5.0550     1.5830    -1.1100 c3         1 PGF      -0.091100
      2 C8          -4.3250     1.3590     0.1950 c3         1 PGF       0.138400
      3 O5          -3.5150     0.2110     0.0860 os         1 PGF      -0.402600
      4 C9          -2.8290    -0.0830     1.2750 c3         1 PGF       0.139400
      5 C10         -1.9510    -1.2920     1.0780 c3         1 PGF       0.138400
      6 O6          -0.9260    -0.9900     0.1660 os         1 PGF      -0.387600
      7 C11         -0.0310    -2.0560    -0.0190 c3         1 PGF       0.139400
      8 C12          1.0450    -1.6550    -0.9960 c3         1 PGF       0.139400
      9 O7           1.8060    -0.6060    -0.4560 os         1 PGF      -0.387600
     10 C13          2.8580    -0.2050    -1.2950 c3         1 PGF       0.138400
     11 C14          3.5620     0.9840    -0.6920 c3         1 PGF       0.135400
     12 O8           4.1770     0.6130     0.5150 os         1 PGF      -0.395600
     13 C15          4.8410     1.6850     1.1310 c3         1 PGF       0.122700
     14 H71         -4.3580     1.7200    -1.9380 hc         1 PGF       0.042033
     15 H72         -5.7110     0.7450    -1.3480 hc         1 PGF       0.042033
     16 H73         -5.6700     2.4790    -1.0400 hc         1 PGF       0.042033
     17 H81         -3.7120     2.2390     0.4380 h1         1 PGF       0.017200
     18 H82         -5.0470     1.2440     1.0150 h1         1 PGF       0.017200
     19 H91         -2.2160     0.7710     1.6010 h1         1 PGF       0.028200
     20 H92         -3.5310    -0.2960     2.0940 h1         1 PGF       0.028200
     21 H101        -1.5390    -1.5760     2.0570 h1         1 PGF       0.027200
     22 H102        -2.5540    -2.1430     0.7280 h1         1 PGF       0.027200
     23 H111         0.4240    -2.3580     0.9350 h1         1 PGF       0.027700
     24 H112        -0.5440    -2.9410    -0.4210 h1         1 PGF       0.027700
     25 H121         1.6680    -2.5390    -1.1950 h1         1 PGF       0.027700
     26 H122         0.5930    -1.3620    -1.9540 h1         1 PGF       0.027700
     27 H131         3.5720    -1.0260    -1.4530 h1         1 PGF       0.026200
     28 H132         2.4860     0.0880    -2.2870 h1         1 PGF       0.026200
     29 H141         4.3020     1.3510    -1.4180 h1         1 PGF       0.028700
     30 H142         2.8420     1.8000    -0.5340 h1         1 PGF       0.028700
     31 H151         5.6440     2.0900     0.5030 h1         1 PGF       0.026700
     32 H152         4.1580     2.5080     1.3750 h1         1 PGF       0.026700
     33 H153         5.2830     1.3200     2.0580 h1         1 PGF       0.026700
@<TRIPOS>BOND
     1     1     2 1   
     2     1    14 1   
     3     1    15 1   
     4     1    16 1   
     5     2     3 1   
     6     2    17 1   
     7     2    18 1   
     8     3     4 1   
     9     4     5 1   
    10     4    19 1   
    11     4    20 1   
    12     5     6 1   
    13     5    21 1   
    14     5    22 1   
    15     6     7 1   
    16     7     8 1   
    17     7    23 1   
    18     7    24 1   
    19     8     9 1   
    20     8    25 1   
    21     8    26 1   
    22     9    10 1   
    23    10    11 1   
    24    10    27 1   
    25    10    28 1   
    26    11    12 1   
    27    11    29 1   
    28    11    30 1   
    29    12    13 1   
    30    13    31 1   
    31    13    32 1   
    32    13    33 1   
@<TRIPOS>SUBSTRUCTURE
     1 PGF         1 TEMP              0 ****  ****    0 ROOT
