@<TRIPOS>MOLECULE
PGF
   33    32     1     0     0
SMALL
No Charge or Current Charge


@<TRIPOS>ATOM
      1 C7          -5.4420     1.2050    -1.2570 c3         1 PGF      -0.091100
      2 C8          -4.6740     1.2760     0.0720 c3         1 PGF       0.161600
      3 O5          -3.7540     0.1740     0.1030 os         1 PGF      -0.449000
      4 C9          -2.9500     0.1020     1.2990 c3         1 PGF       0.162600
      5 C10         -2.0020    -1.1170     1.1990 c3         1 PGF       0.161600
      6 O6          -0.9740    -0.8370     0.2280 os         1 PGF      -0.434000
      7 C11         -0.0280    -1.9070     0.0350 c3         1 PGF       0.162600
      8 C12          1.0190    -1.4720    -1.0180 c3         1 PGF       0.162600
      9 O7           1.8850    -0.4760    -0.4380 os         1 PGF      -0.434000
     10 C13          2.9030     0.0220    -1.3290 c3         1 PGF       0.161600
     11 C14          3.7600     1.0710    -0.5810 c3         1 PGF       0.158600
     12 O8           4.5870     0.4000     0.3920 os         1 PGF      -0.442000
     13 C15          5.4300     1.2750     1.1610 c3         1 PGF       0.145900
     14 H71         -4.7530     1.2780    -2.1060 hc         1 PGF       0.042033
     15 H72         -5.9960     0.2620    -1.3330 hc         1 PGF       0.042033
     16 H73         -6.1590     2.0320    -1.3240 hc         1 PGF       0.042033
     17 H81         -4.1380     2.2320     0.1350 h1         1 PGF       0.017200
     18 H82         -5.3820     1.2160     0.9090 h1         1 PGF       0.017200
     19 H91         -2.3580     1.0170     1.4320 h1         1 PGF       0.028200
     20 H92         -3.5920    -0.0210     2.1810 h1         1 PGF       0.028200
     21 H101        -1.5530    -1.2980     2.1850 h1         1 PGF       0.027200
     22 H102        -2.5780    -2.0090     0.9180 h1         1 PGF       0.027200
     23 H111         0.4800    -2.1590     0.9760 h1         1 PGF       0.027700
     24 H112        -0.5410    -2.8070    -0.3270 h1         1 PGF       0.027700
     25 H121         1.6030    -2.3510    -1.3210 h1         1 PGF       0.027700
     26 H122         0.5060    -1.0800    -1.9060 h1         1 PGF       0.027700
     27 H131         3.5470    -0.7930    -1.6860 h1         1 PGF       0.026200
     28 H132         2.4410     0.5000    -2.2030 h1         1 PGF       0.026200
     29 H141         4.3870     1.6000    -1.3110 h1         1 PGF       0.028700
     30 H142         3.1020     1.8070    -0.1000 h1         1 PGF       0.028700
     31 H151         6.1190     1.8260     0.5070 h1         1 PGF       0.026700
     32 H152         4.8280     2.0000     1.7240 h1         1 PGF       0.026700
     33 H153         6.0270     0.6960     1.8770 h1         1 PGF       0.026700
@<TRIPOS>BOND
     1     1     2 1   
     2     1    14 1   
     3     1    15 1   
     4     1    16 1   
     5     2     3 1   
     6     2    17 1   
     7     2    18 1   
     8     3     4 1   
     9     4     5 1   
    10     4    19 1   
    11     4    20 1   
    12     5     6 1   
    13     5    21 1   
    14     5    22 1   
    15     6     7 1   
    16     7     8 1   
    17     7    23 1   
    18     7    24 1   
    19     8     9 1   
    20     8    25 1   
    21     8    26 1   
    22     9    10 1   
    23    10    11 1   
    24    10    27 1   
    25    10    28 1   
    26    11    12 1   
    27    11    29 1   
    28    11    30 1   
    29    12    13 1   
    30    13    31 1   
    31    13    32 1   
    32    13    33 1   
@<TRIPOS>SUBSTRUCTURE
     1 PGF         1 TEMP              0 ****  ****    0 ROOT
