@<TRIPOS>MOLECULE
PGG
   36    36     1     0     0
SMALL
No Charge or Current Charge


@<TRIPOS>ATOM
      1 C1          -0.1760     0.9620    -2.8990 ca         1 PGG       0.281100
      2 C2           0.4470     1.6480    -3.9510 ca         1 PGG      -0.171500
      3 C3           0.9920     0.9520    -5.0430 ca         1 PGG      -0.031500
      4 C4           0.9210    -0.4590    -5.0910 ca         1 PGG      -0.247200
      5 C5           0.2980    -1.1510    -4.0280 ca         1 PGG      -0.031500
      6 C6          -0.2450    -0.4460    -2.9400 ca         1 PGG      -0.171500
      7 P1          -1.5450     1.2600    -0.5860 p5         1 PGG       1.382400
      8 O1          -0.6740     1.7180    -1.8670 os         1 PGG      -0.467500
      9 O2          -2.1530     2.4330     0.1120 o          1 PGG      -0.800000
     10 O3          -2.5440     0.1940    -0.9000 o          1 PGG      -0.800000
     11 C8          -0.1880     0.5770     0.4560 c3         1 PGG      -0.435400
     12 C9          -0.6460     0.0030     1.8170 c3         1 PGG      -0.034400
     13 C10          0.5290    -0.5540     2.6510 c3         1 PGG      -0.154400
     14 C11          0.0510    -1.1030     4.0030 c          1 PGG       0.584100
     15 N2           0.3790    -0.3310     5.0940 ns         1 PGG      -0.480900
     16 O6          -0.5500    -2.1640     4.1110 o          1 PGG      -0.656100
     17 C12          0.0330    -0.6520     6.4990 c3         1 PGG      -0.048000
     18 C13          0.7410     0.2930     7.5140 c          1 PGG       0.712000
     19 O7           1.1600    -0.1910     8.5560 o          1 PGG      -0.740500
     20 O8           0.8960     1.4680     7.2090 o          1 PGG      -0.740500
     21 N1           1.5000    -1.2100    -6.2520 no         1 PGG       0.707200
     22 O4           1.4150    -2.4450    -6.2520 o          1 PGG      -0.443500
     23 O5           2.0370    -0.5620    -7.1600 o          1 PGG      -0.443500
     24 H21          0.5070     2.7330    -3.9190 ha         1 PGG       0.144500
     25 H31          1.4670     1.5160    -5.8440 ha         1 PGG       0.129000
     26 H51          0.2300    -2.2380    -4.0340 ha         1 PGG       0.129000
     27 H61         -0.7080    -1.0130    -2.1400 ha         1 PGG       0.144500
     28 H81          0.5250     1.3950     0.6130 hc         1 PGG       0.048700
     29 H82          0.3210    -0.1990    -0.1240 hc         1 PGG       0.048700
     30 H91         -1.3800    -0.7950     1.6480 hc         1 PGG       0.056200
     31 H92         -1.1560     0.7880     2.3920 hc         1 PGG       0.056200
     32 H101         1.2550     0.2530     2.8090 hc         1 PGG       0.041700
     33 H102         0.9990    -1.3680     2.0860 hc         1 PGG       0.041700
     34 HN21         0.8770     0.5330     4.9110 hn         1 PGG       0.332500
     35 H121         0.3250    -1.6880     6.7130 h1         1 PGG       0.029700
     36 H122        -1.0520    -0.5550     6.6320 h1         1 PGG       0.029700
@<TRIPOS>BOND
     1     1     2 ar  
     2     1     6 ar  
     3     1     8 1   
     4     2     3 ar  
     5     2    24 1   
     6     3     4 ar  
     7     3    25 1   
     8     4     5 ar  
     9     4    21 1   
    10     5     6 ar  
    11     5    26 1   
    12     6    27 1   
    13     7     8 1   
    14     7     9 1   
    15     7    10 1   
    16     7    11 1   
    17    11    12 1   
    18    11    28 1   
    19    11    29 1   
    20    12    13 1   
    21    12    30 1   
    22    12    31 1   
    23    13    14 1   
    24    13    32 1   
    25    13    33 1   
    26    14    15 1   
    27    14    16 2   
    28    15    17 1   
    29    15    34 1   
    30    17    18 1   
    31    17    35 1   
    32    17    36 1   
    33    18    19 1   
    34    18    20 1   
    35    21    22 1   
    36    21    23 1   
@<TRIPOS>SUBSTRUCTURE
     1 PGG         1 TEMP              0 ****  ****    0 ROOT
