@<TRIPOS>MOLECULE
PGG
   36    36     1     0     0
SMALL
abcg2


@<TRIPOS>ATOM
      1 C1           0.6990    -0.0160    -3.1360 ca         1 PGG       0.281100
      2 C2           0.6560     1.1890    -3.8380 ca         1 PGG      -0.171500
      3 C3           0.4450     1.1930    -5.2030 ca         1 PGG      -0.031500
      4 C4           0.2620    -0.0160    -5.8650 ca         1 PGG      -0.247200
      5 C5           0.2950    -1.2250    -5.1790 ca         1 PGG      -0.031500
      6 C6           0.5070    -1.2200    -3.8150 ca         1 PGG      -0.171500
      7 P1          -0.3990     0.0140    -0.7550 p5         1 PGG       1.382400
      8 O1           0.9410    -0.0150    -1.8150 os         1 PGG      -0.467500
      9 O2          -1.0950     1.3280    -0.9580 o          1 PGG      -0.800000
     10 O3          -1.1500    -1.2720    -0.9490 o          1 PGG      -0.800000
     11 C8           0.5480    -0.0040     0.7970 c3         1 PGG      -0.435400
     12 C9          -0.3880     0.0020     2.0050 c3         1 PGG      -0.034400
     13 C10          0.3890    -0.0140     3.3120 c3         1 PGG      -0.154400
     14 C11         -0.4920    -0.0130     4.5480 c          1 PGG       0.584100
     15 N2           0.1710    -0.0200     5.7090 ns         1 PGG      -0.480900
     16 O6          -1.7170    -0.0050     4.4870 o          1 PGG      -0.656100
     17 C12         -0.4630    -0.0190     7.0010 c3         1 PGG      -0.048000
     18 C13          0.5800    -0.0230     8.1370 c          1 PGG       0.712000
     19 O7           0.1090    -0.0230     9.2870 o          1 PGG      -0.740500
     20 O8           1.7820    -0.0240     7.8090 o          1 PGG      -0.740500
     21 N1           0.0340    -0.0150    -7.2930 no         1 PGG       0.707200
     22 O4          -0.1230    -1.0790    -7.8500 o          1 PGG      -0.443500
     23 O5           0.0100     1.0500    -7.8690 o          1 PGG      -0.443500
     24 H21          0.8040     2.1220    -3.3120 ha         1 PGG       0.144500
     25 H31          0.4180     2.1310    -5.7380 ha         1 PGG       0.129000
     26 H51          0.1510    -2.1630    -5.6950 ha         1 PGG       0.129000
     27 H61          0.5390    -2.1530    -3.2700 ha         1 PGG       0.144500
     28 H81          1.2090     0.8660     0.8310 hc         1 PGG       0.048700
     29 H82          1.1860    -0.8910     0.8230 hc         1 PGG       0.048700
     30 H91         -1.0510    -0.8640     1.9570 hc         1 PGG       0.056200
     31 H92         -1.0280     0.8860     1.9660 hc         1 PGG       0.056200
     32 H101         1.0600     0.8500     3.3590 hc         1 PGG       0.041700
     33 H102         1.0410    -0.8940     3.3480 hc         1 PGG       0.041700
     34 HN21         1.1810    -0.0240     5.7270 hn         1 PGG       0.332500
     35 H121        -1.1120    -0.8930     7.1170 h1         1 PGG       0.029700
     36 H122        -1.1080     0.8570     7.1180 h1         1 PGG       0.029700
@<TRIPOS>BOND
     1     1     2 ar  
     2     1     6 ar  
     3     1     8 1   
     4     2     3 ar  
     5     2    24 1   
     6     3     4 ar  
     7     3    25 1   
     8     4     5 ar  
     9     4    21 1   
    10     5     6 ar  
    11     5    26 1   
    12     6    27 1   
    13     7     8 1   
    14     7     9 1   
    15     7    10 1   
    16     7    11 1   
    17    11    12 1   
    18    11    28 1   
    19    11    29 1   
    20    12    13 1   
    21    12    30 1   
    22    12    31 1   
    23    13    14 1   
    24    13    32 1   
    25    13    33 1   
    26    14    15 1   
    27    14    16 2   
    28    15    17 1   
    29    15    34 1   
    30    17    18 1   
    31    17    35 1   
    32    17    36 1   
    33    18    19 1   
    34    18    20 1   
    35    21    22 1   
    36    21    23 1   
@<TRIPOS>SUBSTRUCTURE
     1 PGG         1 TEMP              0 ****  ****    0 ROOT
