@<TRIPOS>MOLECULE
PGI
   43    45     1     0     0
SMALL
bcc


@<TRIPOS>ATOM
      1 O6          -2.1290     3.5590     0.4960 oh         1 PGI      -0.607800
      2 C6          -3.0310     2.5360     0.8330 c3         1 PGI       0.131400
      3 C5          -2.8270     1.3560    -0.1050 c6         1 PGI       0.038000
      4 C4          -4.0120     0.3880    -0.0010 c6         1 PGI       0.144100
      5 O4          -5.0600     1.0030    -0.6960 oh         1 PGI      -0.572800
      6 C3          -3.6890    -0.9910    -0.5750 c6         1 PGI       0.101100
      7 O3          -4.8640    -1.7480    -0.5220 oh         1 PGI      -0.581800
      8 C2          -2.5900    -1.6300     0.2690 c6         1 PGI       0.174400
      9 O2          -2.1310    -2.8290    -0.2850 oh         1 PGI      -0.577800
     10 N1          -1.5700     0.6530     0.1870 na         1 PGI      -0.001100
     11 C8          -0.3140     1.2180     0.2830 cc         1 PGI      -0.110300
     12 C7           0.5680     0.2130     0.5000 cd         1 PGI      -0.063600
     13 N2          -0.1800    -0.9410     0.5250 na         1 PGI      -0.113100
     14 C1          -1.4590    -0.6590     0.3360 cc         1 PGI      -0.021900
     15 C9           2.0460     0.2290     0.6390 c3         1 PGI      -0.029100
     16 C10          2.7580    -0.4050    -0.5660 c3         1 PGI      -0.020100
     17 C14          4.2510    -0.3450    -0.4060 ca         1 PGI      -0.110300
     18 C13          4.9410    -1.3790     0.2220 ca         1 PGI      -0.120000
     19 C12          6.3160    -1.3080     0.4040 ca         1 PGI      -0.118500
     20 C15          4.9680     0.7650    -0.8460 ca         1 PGI      -0.120000
     21 C16          6.3430     0.8400    -0.6660 ca         1 PGI      -0.118500
     22 C11          7.0220    -0.1970    -0.0390 ca         1 PGI      -0.108000
     23 H6          -2.1980     4.2540     1.1580 ho         1 PGI       0.440000
     24 H6C1        -2.9050     2.1910     1.8660 h1         1 PGI       0.059700
     25 H6C2        -4.0690     2.8660     0.7220 h1         1 PGI       0.059700
     26 H5          -2.7600     1.7100    -1.1370 h1         1 PGI       0.129700
     27 H4          -4.2660     0.2580     1.0640 h1         1 PGI       0.057700
     28 HA          -5.8530     0.4700    -0.5810 ho         1 PGI       0.452000
     29 H3          -3.3260    -0.8770    -1.6070 h1         1 PGI       0.080700
     30 HB          -4.7830    -2.4960    -1.1220 ho         1 PGI       0.444000
     31 H2          -2.9740    -1.7760     1.2870 h1         1 PGI       0.091700
     32 HC          -2.2770    -3.5430     0.3410 ho         1 PGI       0.443000
     33 H8          -0.1490     2.2760     0.1860 h4         1 PGI       0.240000
     34 HD           0.1730    -1.8770     0.6690 hn         1 PGI       0.355700
     35 H9C1         2.3620     1.2660     0.7530 hc         1 PGI       0.085200
     36 H9C2         2.3370    -0.2900     1.5560 hc         1 PGI       0.085200
     37 H101         2.4390    -1.4440    -0.6820 hc         1 PGI       0.051200
     38 H102         2.4530     0.1210    -1.4740 hc         1 PGI       0.051200
     39 H13          4.4000    -2.2520     0.5680 ha         1 PGI       0.125500
     40 H12          6.8360    -2.1230     0.8900 ha         1 PGI       0.142000
     41 H15          4.4470     1.5780    -1.3380 ha         1 PGI       0.125500
     42 H16          6.8840     1.7080    -1.0190 ha         1 PGI       0.142000
     43 H11          8.0940    -0.1410     0.1010 ha         1 PGI       0.145000
@<TRIPOS>BOND
     1     1     2 1   
     2     1    23 1   
     3     2     3 1   
     4     2    24 1   
     5     2    25 1   
     6     3     4 1   
     7     3    10 1   
     8     3    26 1   
     9     4     5 1   
    10     4     6 1   
    11     4    27 1   
    12     5    28 1   
    13     6     7 1   
    14     6     8 1   
    15     6    29 1   
    16     7    30 1   
    17     8     9 1   
    18     8    14 1   
    19     8    31 1   
    20     9    32 1   
    21    10    11 1   
    22    10    14 2   
    23    11    12 2   
    24    11    33 1   
    25    12    13 1   
    26    12    15 1   
    27    13    14 1   
    28    13    34 1   
    29    15    16 1   
    30    15    35 1   
    31    15    36 1   
    32    16    17 1   
    33    16    37 1   
    34    16    38 1   
    35    17    18 ar  
    36    17    20 ar  
    37    18    19 ar  
    38    18    39 1   
    39    19    22 ar  
    40    19    40 1   
    41    20    21 ar  
    42    20    41 1   
    43    21    22 ar  
    44    21    42 1   
    45    22    43 1   
@<TRIPOS>SUBSTRUCTURE
     1 PGI         1 TEMP              0 ****  ****    0 ROOT
