@<TRIPOS>MOLECULE
PGI
   43    45     1     0     0
SMALL
No Charge or Current Charge


@<TRIPOS>ATOM
      1 O6          -2.0820     3.7200     0.3290 oh         1 PGI      -0.670000
      2 C6          -3.0200     2.6930     0.7000 c3         1 PGI       0.154600
      3 C5          -2.8330     1.3760    -0.1180 c6         1 PGI       0.067300
      4 C4          -4.0880     0.4500     0.0370 c6         1 PGI       0.167300
      5 O4          -5.2250     1.0040    -0.6430 oh         1 PGI      -0.695000
      6 C3          -3.8290    -0.9850    -0.5190 c6         1 PGI       0.124300
      7 O3          -5.0490    -1.7550    -0.5020 oh         1 PGI      -0.644000
      8 C2          -2.7160    -1.6840     0.3180 c6         1 PGI       0.197600
      9 O2          -2.3640    -2.9460    -0.2790 oh         1 PGI      -0.700000
     10 N1          -1.5870     0.6230     0.2120 na         1 PGI       0.020300
     11 C8          -0.2890     1.1370     0.2970 cc         1 PGI      -0.143000
     12 C7           0.5680     0.0820     0.5390 cd         1 PGI      -0.114300
     13 N2          -0.2090    -1.0540     0.5810 na         1 PGI      -0.062000
     14 C1          -1.5300    -0.7520     0.3790 cc         1 PGI      -0.072600
     15 C9           2.0660     0.0960     0.7100 c3         1 PGI      -0.029100
     16 C10          2.8100    -0.3100    -0.5780 c3         1 PGI      -0.020100
     17 C14          4.3230    -0.2740    -0.4010 ca         1 PGI      -0.110300
     18 C13          5.0160    -1.4230     0.0250 ca         1 PGI      -0.102000
     19 C12          6.4120    -1.3880     0.1940 ca         1 PGI      -0.100500
     20 C15          5.0390     0.9120    -0.6550 ca         1 PGI      -0.102000
     21 C16          6.4340     0.9480    -0.4870 ca         1 PGI      -0.100500
     22 C11          7.1220    -0.2020    -0.0620 ca         1 PGI      -0.090000
     23 H6          -2.3060     4.5230     0.8540 ho         1 PGI       0.479000
     24 H6C1        -2.9300     2.4540     1.7690 h1         1 PGI       0.059700
     25 H6C2        -4.0430     3.0590     0.5360 h1         1 PGI       0.059700
     26 H5          -2.7630     1.6600    -1.1760 h1         1 PGI       0.129700
     27 H4          -4.3120     0.3530     1.1110 h1         1 PGI       0.057700
     28 HA          -5.8190     0.2260    -0.7940 ho         1 PGI       0.551000
     29 H3          -3.4630    -0.8890    -1.5540 h1         1 PGI       0.080700
     30 HB          -4.7900    -2.6770    -0.7380 ho         1 PGI       0.483000
     31 H2          -3.1030    -1.8340     1.3390 h1         1 PGI       0.091700
     32 HC          -2.1720    -3.5780     0.4550 ho         1 PGI       0.542000
     33 H8          -0.0720     2.1920     0.1730 h4         1 PGI       0.222000
     34 HD           0.1530    -1.9930     0.7220 hn         1 PGI       0.406000
     35 H9C1         2.3950     1.0990     1.0090 hc         1 PGI       0.085200
     36 H9C2         2.3610    -0.5770     1.5240 hc         1 PGI       0.085200
     37 H101         2.4890    -1.3140    -0.8800 hc         1 PGI       0.051200
     38 H102         2.5090     0.3630    -1.3920 hc         1 PGI       0.051200
     39 H13          4.4750    -2.3450     0.2280 ha         1 PGI       0.107500
     40 H12          6.9420    -2.2790     0.5230 ha         1 PGI       0.124000
     41 H15          4.5150     1.8080    -0.9820 ha         1 PGI       0.107500
     42 H16          6.9830     1.8670    -0.6840 ha         1 PGI       0.124000
     43 H11          8.2010    -0.1750     0.0680 ha         1 PGI       0.127000
@<TRIPOS>BOND
     1     1     2 1   
     2     1    23 1   
     3     2     3 1   
     4     2    24 1   
     5     2    25 1   
     6     3     4 1   
     7     3    10 1   
     8     3    26 1   
     9     4     5 1   
    10     4     6 1   
    11     4    27 1   
    12     5    28 1   
    13     6     7 1   
    14     6     8 1   
    15     6    29 1   
    16     7    30 1   
    17     8     9 1   
    18     8    14 1   
    19     8    31 1   
    20     9    32 1   
    21    10    11 1   
    22    10    14 2   
    23    11    12 2   
    24    11    33 1   
    25    12    13 1   
    26    12    15 1   
    27    13    14 1   
    28    13    34 1   
    29    15    16 1   
    30    15    35 1   
    31    15    36 1   
    32    16    17 1   
    33    16    37 1   
    34    16    38 1   
    35    17    18 ar  
    36    17    20 ar  
    37    18    19 ar  
    38    18    39 1   
    39    19    22 ar  
    40    19    40 1   
    41    20    21 ar  
    42    20    41 1   
    43    21    22 ar  
    44    21    42 1   
    45    22    43 1   
@<TRIPOS>SUBSTRUCTURE
     1 PGI         1 TEMP              0 ****  ****    0 ROOT
