@<TRIPOS>MOLECULE
PGJ
   49    52     1     0     0
SMALL
No Charge or Current Charge


@<TRIPOS>ATOM
      1 C1          -1.0220     0.7680    -1.8820 cc         1 PGJ       0.012200
      2 N2          -2.2140     0.6080    -2.5620 na         1 PGJ      -0.409900
      3 O3          -2.1690    -0.0970    -3.8220 os         1 PGJ      -0.180400
      4 C4          -0.8370    -0.4380    -3.8670 c          1 PGJ       0.638300
      5 C5          -0.1330     0.0490    -2.6520 cd         1 PGJ      -0.164400
      6 C6          -3.6260     0.7940    -2.1460 c3         1 PGJ       0.423800
      7 O7          -4.1530    -0.4960    -1.7720 os         1 PGJ      -0.452000
      8 C10         -3.6740    -1.0130    -0.5190 c3         1 PGJ       0.145600
      9 C11         -4.3990    -2.3430    -0.2600 c3         1 PGJ      -0.092100
     10 C17         -0.8290     1.1980    -0.4900 ca         1 PGJ       0.194800
     11 C18         -1.4250     2.3810    -0.0210 ca         1 PGJ      -0.234000
     12 C19         -1.2260     2.7270     1.3220 ca         1 PGJ       0.145900
     13 N20         -0.4980     1.9510     2.1450 nb         1 PGJ      -0.209000
     14 C21          0.0290     0.8180     1.6250 ca         1 PGJ       0.344300
     15 N22         -0.1040     0.4200     0.3430 nb         1 PGJ      -0.172000
     16 O23          0.7950     0.0130     2.4420 os         1 PGJ      -0.343400
     17 C24          0.5080    -0.1990     3.7780 ca         1 PGJ       0.009100
     18 C25         -0.8210    -0.3810     4.2170 ca         1 PGJ      -0.057000
     19 C26         -1.0840    -0.6120     5.5790 ca         1 PGJ      -0.138000
     20 C27         -0.0250    -0.6690     6.5040 ca         1 PGJ      -0.068000
     21 C28          1.3000    -0.5030     6.0650 ca         1 PGJ      -0.139000
     22 C29          1.5660    -0.2730     4.7050 ca         1 PGJ       0.148100
     23 O34          2.8530    -0.1180     4.2800 oh         1 PGJ      -0.534100
     24 C35          1.3350    -0.0630    -2.4510 ca         1 PGJ      -0.028800
     25 C36          2.0500    -1.1810    -2.9390 ca         1 PGJ      -0.059500
     26 C37          3.4410    -1.2840    -2.7520 ca         1 PGJ      -0.156500
     27 C38          4.1340    -0.2680    -2.0820 ca         1 PGJ       0.178000
     28 C39          3.4460     0.8540    -1.6010 ca         1 PGJ      -0.156500
     29 C40          2.0560     0.9570    -1.7870 ca         1 PGJ      -0.059500
     30 F45          5.4690    -0.3670    -1.9040 f          1 PGJ      -0.177000
     31 O47         -0.3320    -1.0410    -4.8060 o          1 PGJ      -0.471000
     32 H61         -4.1780     1.2110    -2.9970 h2         1 PGJ       0.081700
     33 H62         -3.6750     1.5080    -1.3170 h2         1 PGJ       0.081700
     34 H101        -3.8860    -0.3150     0.3010 h1         1 PGJ       0.034200
     35 H102        -2.5920    -1.1950    -0.5520 h1         1 PGJ       0.034200
     36 H111        -4.0650    -2.7780     0.6890 hc         1 PGJ       0.048367
     37 H112        -5.4830    -2.1880    -0.2050 hc         1 PGJ       0.048367
     38 H113        -4.1860    -3.0600    -1.0610 hc         1 PGJ       0.048367
     39 H18         -2.0070     3.0200    -0.6800 ha         1 PGJ       0.154000
     40 H19         -1.6520     3.6360     1.7460 h4         1 PGJ       0.036100
     41 H25         -1.6450    -0.3510     3.5080 ha         1 PGJ       0.127000
     42 H26         -2.1080    -0.7490     5.9180 ha         1 PGJ       0.122000
     43 H27         -0.2320    -0.8480     7.5570 ha         1 PGJ       0.120000
     44 H28          2.1200    -0.5530     6.7770 ha         1 PGJ       0.134000
     45 H34          2.8130     0.0130     3.3070 ho         1 PGJ       0.481000
     46 H36          1.5320    -1.9940    -3.4400 ha         1 PGJ       0.121000
     47 H37          3.9790    -2.1530    -3.1210 ha         1 PGJ       0.135000
     48 H39          3.9900     1.6450    -1.0930 ha         1 PGJ       0.135000
     49 H40          1.5500     1.8520    -1.4350 ha         1 PGJ       0.121000
@<TRIPOS>BOND
     1     1     2 1   
     2     1     5 2   
     3     1    10 1   
     4     2     3 1   
     5     2     6 1   
     6     3     4 1   
     7     4     5 1   
     8     4    31 2   
     9     5    24 1   
    10     6     7 1   
    11     6    32 1   
    12     6    33 1   
    13     7     8 1   
    14     8     9 1   
    15     8    34 1   
    16     8    35 1   
    17     9    36 1   
    18     9    37 1   
    19     9    38 1   
    20    10    11 ar  
    21    10    15 ar  
    22    11    12 ar  
    23    11    39 1   
    24    12    13 ar  
    25    12    40 1   
    26    13    14 ar  
    27    14    15 ar  
    28    14    16 1   
    29    16    17 1   
    30    17    18 ar  
    31    17    22 ar  
    32    18    19 ar  
    33    18    41 1   
    34    19    20 ar  
    35    19    42 1   
    36    20    21 ar  
    37    20    43 1   
    38    21    22 ar  
    39    21    44 1   
    40    22    23 1   
    41    23    45 1   
    42    24    25 ar  
    43    24    29 ar  
    44    25    26 ar  
    45    25    46 1   
    46    26    27 ar  
    47    26    47 1   
    48    27    28 ar  
    49    27    30 1   
    50    28    29 ar  
    51    28    48 1   
    52    29    49 1   
@<TRIPOS>SUBSTRUCTURE
     1 PGJ         1 TEMP              0 ****  ****    0 ROOT
