@<TRIPOS>MOLECULE
PGJ
   49    52     1     0     0
SMALL
abcg2


@<TRIPOS>ATOM
      1 C1          -1.1340     0.8350    -1.7580 cc         1 PGJ       0.012200
      2 N2          -2.1720     1.1970    -2.5700 na         1 PGJ      -0.409900
      3 O3          -1.8340     0.8170    -3.8500 os         1 PGJ      -0.180400
      4 C4          -0.5740     0.2900    -3.8490 c          1 PGJ       0.638300
      5 C5          -0.1100     0.3210    -2.4810 cd         1 PGJ      -0.164400
      6 C6          -3.5770     0.9220    -2.2880 c3         1 PGJ       0.423800
      7 O7          -3.9210    -0.4110    -2.3710 os         1 PGJ      -0.452000
      8 C10         -3.6000    -1.2080    -1.2370 c3         1 PGJ       0.145600
      9 C11         -4.2980    -2.5400    -1.3710 c3         1 PGJ      -0.092100
     10 C17         -1.1760     1.1000    -0.3130 ca         1 PGJ       0.194800
     11 C18         -1.6360     2.3020     0.2000 ca         1 PGJ      -0.234000
     12 C19         -1.5350     2.4450     1.5760 ca         1 PGJ       0.145900
     13 N20         -1.0250     1.5020     2.3540 nb         1 PGJ      -0.209000
     14 C21         -0.6290     0.4020     1.7460 ca         1 PGJ       0.344300
     15 N22         -0.6860     0.1390     0.4580 nb         1 PGJ      -0.172000
     16 O23         -0.0940    -0.5940     2.4700 os         1 PGJ      -0.343400
     17 C24          0.2690    -0.3370     3.7790 ca         1 PGJ       0.009100
     18 C25         -0.6010    -0.6020     4.8190 ca         1 PGJ      -0.057000
     19 C26         -0.1950    -0.3710     6.1260 ca         1 PGJ      -0.138000
     20 C27          1.0780     0.1290     6.3690 ca         1 PGJ      -0.068000
     21 C28          1.9520     0.3830     5.3210 ca         1 PGJ      -0.139000
     22 C29          1.5540     0.1500     4.0090 ca         1 PGJ       0.148100
     23 O34          2.4170     0.4170     3.0070 oh         1 PGJ      -0.534100
     24 C35          1.2230    -0.0910    -2.0430 ca         1 PGJ      -0.028800
     25 C36          1.7600    -1.3000    -2.4820 ca         1 PGJ      -0.059500
     26 C37          3.0120    -1.7200    -2.0580 ca         1 PGJ      -0.156500
     27 C38          3.7220    -0.9140    -1.1910 ca         1 PGJ       0.178000
     28 C39          3.2280     0.2980    -0.7440 ca         1 PGJ      -0.156500
     29 C40          1.9790     0.7060    -1.1830 ca         1 PGJ      -0.059500
     30 F45          4.9330    -1.3140    -0.7750 f          1 PGJ      -0.177000
     31 O47         -0.0590    -0.0630    -4.8780 o          1 PGJ      -0.471000
     32 H61         -4.1580     1.4690    -3.0280 h2         1 PGJ       0.081700
     33 H62         -3.7770     1.3550    -1.3020 h2         1 PGJ       0.081700
     34 H101        -3.9200    -0.6980    -0.3210 h1         1 PGJ       0.034200
     35 H102        -2.5180    -1.3660    -1.1640 h1         1 PGJ       0.034200
     36 H111        -4.0530    -3.1670    -0.5140 hc         1 PGJ       0.048367
     37 H112        -5.3810    -2.4210    -1.4030 hc         1 PGJ       0.048367
     38 H113        -3.9790    -3.0670    -2.2710 hc         1 PGJ       0.048367
     39 H18         -2.0210     3.0960    -0.4230 ha         1 PGJ       0.154000
     40 H19         -1.8680     3.3530     2.0620 h4         1 PGJ       0.036100
     41 H25         -1.5890    -0.9860     4.6020 ha         1 PGJ       0.127000
     42 H26         -0.8700    -0.5760     6.9450 ha         1 PGJ       0.122000
     43 H27          1.4030     0.3140     7.3840 ha         1 PGJ       0.120000
     44 H28          2.9470     0.7610     5.5140 ha         1 PGJ       0.134000
     45 H34          2.1700    -0.0560     2.2040 ho         1 PGJ       0.481000
     46 H36          1.1920    -1.9380    -3.1460 ha         1 PGJ       0.121000
     47 H37          3.4230    -2.6620    -2.3950 ha         1 PGJ       0.135000
     48 H39          3.8140     0.9220    -0.0830 ha         1 PGJ       0.135000
     49 H40          1.6020     1.6680    -0.8590 ha         1 PGJ       0.121000
@<TRIPOS>BOND
     1     1     2 1   
     2     1     5 2   
     3     1    10 1   
     4     2     3 1   
     5     2     6 1   
     6     3     4 1   
     7     4     5 1   
     8     4    31 2   
     9     5    24 1   
    10     6     7 1   
    11     6    32 1   
    12     6    33 1   
    13     7     8 1   
    14     8     9 1   
    15     8    34 1   
    16     8    35 1   
    17     9    36 1   
    18     9    37 1   
    19     9    38 1   
    20    10    11 ar  
    21    10    15 ar  
    22    11    12 ar  
    23    11    39 1   
    24    12    13 ar  
    25    12    40 1   
    26    13    14 ar  
    27    14    15 ar  
    28    14    16 1   
    29    16    17 1   
    30    17    18 ar  
    31    17    22 ar  
    32    18    19 ar  
    33    18    41 1   
    34    19    20 ar  
    35    19    42 1   
    36    20    21 ar  
    37    20    43 1   
    38    21    22 ar  
    39    21    44 1   
    40    22    23 1   
    41    23    45 1   
    42    24    25 ar  
    43    24    29 ar  
    44    25    26 ar  
    45    25    46 1   
    46    26    27 ar  
    47    26    47 1   
    48    27    28 ar  
    49    27    30 1   
    50    28    29 ar  
    51    28    48 1   
    52    29    49 1   
@<TRIPOS>SUBSTRUCTURE
     1 PGJ         1 TEMP              0 ****  ****    0 ROOT
