@<TRIPOS>MOLECULE
PGK
  129   128     1     0     0
SMALL
No Charge or Current Charge


@<TRIPOS>ATOM
      1 C48        -16.2460     8.8230    -0.7750 c3         1 PGK      -0.088100
      2 C47        -15.3780     7.9450     0.1470 c3         1 PGK      -0.075400
      3 C46        -14.4490     6.9870    -0.6300 c3         1 PGK      -0.075400
      4 C45        -13.5850     6.0990     0.2930 c3         1 PGK      -0.074400
      5 C44        -12.6630     5.1350    -0.4840 c3         1 PGK      -0.074400
      6 C43        -11.8160     4.2310     0.4400 c3         1 PGK      -0.073400
      7 C42        -10.9100     3.2510    -0.3380 c3         1 PGK      -0.076400
      8 C41        -10.0920     2.3230     0.5920 c3         1 PGK      -0.074400
      9 C40         -9.1450     1.3440    -0.1530 c3         1 PGK       0.109300
     10 Br2        -10.1950     0.0700    -1.2910 br         1 PGK      -0.258000
     11 C39         -8.1760     0.5850     0.8020 c3         1 PGK       0.110300
     12 Br1         -9.1830    -0.6040     2.0650 br         1 PGK      -0.259000
     13 C38         -7.0800    -0.2170     0.0510 c3         1 PGK      -0.074400
     14 C37         -5.9740    -0.7960     0.9680 c3         1 PGK      -0.076400
     15 C36         -4.8920    -1.5760     0.1880 c3         1 PGK      -0.074400
     16 C35         -3.8210    -2.2030     1.1070 c3         1 PGK      -0.075400
     17 C34         -2.7650    -3.0270     0.3380 c3         1 PGK      -0.076400
     18 C33         -1.7320    -3.7010     1.2690 c3         1 PGK      -0.068400
     19 C32         -0.7000    -4.5670     0.5080 c3         1 PGK      -0.140400
     20 C31          0.2450    -5.2880     1.4720 c          1 PGK       0.602100
     21 O31         -0.0510    -6.3280     2.0490 o          1 PGK      -0.512000
     22 O2           1.3570    -4.5340     1.7530 os         1 PGK      -0.417100
     23 C2           2.3560    -5.0730     2.6550 c3         1 PGK       0.149300
     24 C1           3.1660    -6.2210     1.9650 c3         1 PGK       0.211600
     25 O3P          3.7550    -5.7680     0.7330 os         1 PGK      -0.579400
     26 P            3.3190    -6.3890    -0.6860 p5         1 PGK       1.392800
     27 O1P          1.8510    -6.6270    -0.7800 o          1 PGK      -0.826000
     28 O2P          3.8220    -5.5550    -1.8160 o          1 PGK      -0.826000
     29 O4P          4.1420    -7.7740    -0.5920 os         1 PGK      -0.576400
     30 C4           5.5320    -7.9610    -0.9550 c3         1 PGK       0.192600
     31 C5           6.4700    -6.7830    -0.5220 c3         1 PGK       0.156300
     32 O5           6.4110    -5.7080    -1.4880 oh         1 PGK      -0.639000
     33 C6           7.9420    -7.2690    -0.3710 c3         1 PGK       0.118600
     34 O6           8.7890    -6.2420     0.1750 oh         1 PGK      -0.652000
     35 C3           3.1800    -3.8890     3.2520 c3         1 PGK       0.175600
     36 O3           4.0610    -3.2810     2.2770 os         1 PGK      -0.432100
     37 C11          5.3360    -3.7710     2.1370 c          1 PGK       0.623100
     38 O11          5.8510    -4.5940     2.8840 o          1 PGK      -0.501000
     39 C12          6.1090    -3.0320     1.0450 c3         1 PGK      -0.139400
     40 C13          6.8600    -1.8060     1.6150 c3         1 PGK      -0.061400
     41 C14          7.6790    -1.0470     0.5490 c3         1 PGK      -0.083400
     42 C15          8.4460     0.1620     1.1290 c3         1 PGK      -0.068400
     43 C16          9.2670     0.9290     0.0690 c3         1 PGK      -0.079400
     44 C17         10.0360     2.1310     0.6610 c3         1 PGK      -0.071400
     45 C18         10.8510     2.9150    -0.3910 c3         1 PGK      -0.074400
     46 C19         11.6120     4.1170     0.2120 c3         1 PGK      -0.074400
     47 C20         12.4140     4.9170    -0.8370 c3         1 PGK      -0.074400
     48 C21         13.1650     6.1250    -0.2320 c3         1 PGK      -0.074400
     49 C22         13.9510     6.9380    -1.2850 c3         1 PGK      -0.074400
     50 C23         14.6960     8.1510    -0.6830 c3         1 PGK      -0.074400
     51 C24         15.4670     8.9720    -1.7410 c3         1 PGK      -0.075400
     52 C25         16.2110    10.1860    -1.1420 c3         1 PGK      -0.075400
     53 C26         16.9730    11.0090    -2.1990 c3         1 PGK      -0.088100
     54 H481       -16.8870     9.4850    -0.1800 hc         1 PGK       0.031033
     55 H482       -15.6170     9.4470    -1.4230 hc         1 PGK       0.031033
     56 H483       -16.8890     8.2020    -1.4100 hc         1 PGK       0.031033
     57 H471       -16.0350     7.3620     0.8040 hc         1 PGK       0.036700
     58 H472       -14.7730     8.5940     0.7930 hc         1 PGK       0.036700
     59 H461       -13.7910     7.5730    -1.2850 hc         1 PGK       0.037700
     60 H462       -15.0570     6.3450    -1.2800 hc         1 PGK       0.037700
     61 H451       -14.2440     5.5160     0.9500 hc         1 PGK       0.037200
     62 H452       -12.9730     6.7400     0.9410 hc         1 PGK       0.037200
     63 H441       -11.9940     5.7170    -1.1310 hc         1 PGK       0.038700
     64 H442       -13.2750     4.5040    -1.1410 hc         1 PGK       0.038700
     65 H431       -12.4870     3.6580     1.0930 hc         1 PGK       0.038700
     66 H432       -11.1950     4.8600     1.0900 hc         1 PGK       0.038700
     67 H421       -10.2230     3.8230    -0.9750 hc         1 PGK       0.046700
     68 H422       -11.5370     2.6480    -1.0060 hc         1 PGK       0.046700
     69 H411       -10.7840     1.7520     1.2230 hc         1 PGK       0.057700
     70 H412        -9.4920     2.9470     1.2660 hc         1 PGK       0.057700
     71 H40         -8.5400     1.9250    -0.8610 h1         1 PGK       0.078700
     72 H39         -7.6800     1.3250     1.4430 h1         1 PGK       0.077700
     73 H381        -6.6070     0.4410    -0.6910 hc         1 PGK       0.058200
     74 H382        -7.5460    -1.0380    -0.5070 hc         1 PGK       0.058200
     75 H371        -6.4230    -1.4680     1.7090 hc         1 PGK       0.045200
     76 H372        -5.4990     0.0220     1.5240 hc         1 PGK       0.045200
     77 H361        -4.4060    -0.9030    -0.5300 hc         1 PGK       0.039200
     78 H362        -5.3740    -2.3720    -0.3940 hc         1 PGK       0.039200
     79 H351        -4.3150    -2.8510     1.8420 hc         1 PGK       0.038200
     80 H352        -3.3180    -1.4070     1.6710 hc         1 PGK       0.038200
     81 H341        -2.2420    -2.3740    -0.3720 hc         1 PGK       0.039200
     82 H342        -3.2740    -3.7990    -0.2530 hc         1 PGK       0.039200
     83 H331        -2.2640    -4.3330     1.9920 hc         1 PGK       0.047700
     84 H332        -1.2050    -2.9310     1.8460 hc         1 PGK       0.047700
     85 H321        -0.1140    -3.9060    -0.1410 hc         1 PGK       0.076700
     86 H322        -1.2310    -5.3170    -0.0880 hc         1 PGK       0.076700
     87 H2           1.8510    -5.5230     3.5190 h1         1 PGK       0.048700
     88 H11          3.9510    -6.5610     2.6520 h1         1 PGK       0.038700
     89 H12          2.5040    -7.0800     1.7950 h1         1 PGK       0.038700
     90 H41          5.8920    -8.8800    -0.4760 h1         1 PGK       0.023700
     91 H42          5.6220    -8.1150    -2.0380 h1         1 PGK       0.023700
     92 H5           6.1510    -6.4360     0.4700 h1         1 PGK       0.088700
     93 HO5          5.4420    -5.5640    -1.6850 ho         1 PGK       0.434000
     94 H61          7.9600    -8.1470     0.2890 h1         1 PGK       0.017200
     95 H62          8.3180    -7.5900    -1.3530 h1         1 PGK       0.017200
     96 HO6          9.7080    -6.5900     0.1660 ho         1 PGK       0.426000
     97 H31          3.7350    -4.2320     4.1340 h1         1 PGK       0.051700
     98 H32          2.4650    -3.1380     3.6100 h1         1 PGK       0.051700
     99 H121         5.4010    -2.6740     0.2890 hc         1 PGK       0.083700
    100 H122         6.8350    -3.7200     0.5980 hc         1 PGK       0.083700
    101 H131         7.5330    -2.1390     2.4160 hc         1 PGK       0.044700
    102 H132         6.1350    -1.1200     2.0720 hc         1 PGK       0.044700
    103 H141         7.0050    -0.7000    -0.2460 hc         1 PGK       0.047700
    104 H142         8.3940    -1.7370     0.0840 hc         1 PGK       0.047700
    105 H151         9.1200    -0.1870     1.9210 hc         1 PGK       0.030700
    106 H152         7.7300     0.8510     1.5960 hc         1 PGK       0.030700
    107 H161         8.5930     1.2860    -0.7210 hc         1 PGK       0.047200
    108 H162         9.9800     0.2420    -0.4040 hc         1 PGK       0.047200
    109 H171        10.7140     1.7720     1.4460 hc         1 PGK       0.031200
    110 H172         9.3220     2.8120     1.1420 hc         1 PGK       0.031200
    111 H181        10.1730     3.2750    -1.1760 hc         1 PGK       0.038200
    112 H182        11.5680     2.2370    -0.8720 hc         1 PGK       0.038200
    113 H191        12.2970     3.7550     0.9900 hc         1 PGK       0.034200
    114 H192        10.8950     4.7860     0.7030 hc         1 PGK       0.034200
    115 H201        11.7300     5.2740    -1.6180 hc         1 PGK       0.036700
    116 H202        13.1370     4.2510    -1.3250 hc         1 PGK       0.036700
    117 H211        13.8590     5.7670     0.5400 hc         1 PGK       0.035700
    118 H212        12.4430     6.7840     0.2660 hc         1 PGK       0.035700
    119 H221        13.2560     7.2910    -2.0570 hc         1 PGK       0.037200
    120 H222        14.6760     6.2800    -1.7810 hc         1 PGK       0.037200
    121 H231        15.3990     7.7980     0.0830 hc         1 PGK       0.036200
    122 H232        13.9730     8.8040    -0.1780 hc         1 PGK       0.036200
    123 H241        14.7630     9.3240    -2.5060 hc         1 PGK       0.036700
    124 H242        16.1900     8.3200    -2.2470 hc         1 PGK       0.036700
    125 H251        16.9210     9.8370    -0.3820 hc         1 PGK       0.036200
    126 H252        15.4910    10.8390    -0.6330 hc         1 PGK       0.036200
    127 H261        17.4850    11.8560    -1.7260 hc         1 PGK       0.030033
    128 H262        17.7260    10.3920    -2.7050 hc         1 PGK       0.030033
    129 H263        16.2830    11.4050    -2.9550 hc         1 PGK       0.030033
@<TRIPOS>BOND
     1     1     2 1   
     2     1    54 1   
     3     1    55 1   
     4     1    56 1   
     5     2     3 1   
     6     2    57 1   
     7     2    58 1   
     8     3     4 1   
     9     3    59 1   
    10     3    60 1   
    11     4     5 1   
    12     4    61 1   
    13     4    62 1   
    14     5     6 1   
    15     5    63 1   
    16     5    64 1   
    17     6     7 1   
    18     6    65 1   
    19     6    66 1   
    20     7     8 1   
    21     7    67 1   
    22     7    68 1   
    23     8     9 1   
    24     8    69 1   
    25     8    70 1   
    26     9    10 1   
    27     9    11 1   
    28     9    71 1   
    29    11    12 1   
    30    11    13 1   
    31    11    72 1   
    32    13    14 1   
    33    13    73 1   
    34    13    74 1   
    35    14    15 1   
    36    14    75 1   
    37    14    76 1   
    38    15    16 1   
    39    15    77 1   
    40    15    78 1   
    41    16    17 1   
    42    16    79 1   
    43    16    80 1   
    44    17    18 1   
    45    17    81 1   
    46    17    82 1   
    47    18    19 1   
    48    18    83 1   
    49    18    84 1   
    50    19    20 1   
    51    19    85 1   
    52    19    86 1   
    53    20    21 2   
    54    20    22 1   
    55    22    23 1   
    56    23    24 1   
    57    23    35 1   
    58    23    87 1   
    59    24    25 1   
    60    24    88 1   
    61    24    89 1   
    62    25    26 1   
    63    26    27 1   
    64    26    28 1   
    65    26    29 1   
    66    29    30 1   
    67    30    31 1   
    68    30    90 1   
    69    30    91 1   
    70    31    32 1   
    71    31    33 1   
    72    31    92 1   
    73    32    93 1   
    74    33    34 1   
    75    33    94 1   
    76    33    95 1   
    77    34    96 1   
    78    35    36 1   
    79    35    97 1   
    80    35    98 1   
    81    36    37 1   
    82    37    38 2   
    83    37    39 1   
    84    39    40 1   
    85    39    99 1   
    86    39   100 1   
    87    40    41 1   
    88    40   101 1   
    89    40   102 1   
    90    41    42 1   
    91    41   103 1   
    92    41   104 1   
    93    42    43 1   
    94    42   105 1   
    95    42   106 1   
    96    43    44 1   
    97    43   107 1   
    98    43   108 1   
    99    44    45 1   
   100    44   109 1   
   101    44   110 1   
   102    45    46 1   
   103    45   111 1   
   104    45   112 1   
   105    46    47 1   
   106    46   113 1   
   107    46   114 1   
   108    47    48 1   
   109    47   115 1   
   110    47   116 1   
   111    48    49 1   
   112    48   117 1   
   113    48   118 1   
   114    49    50 1   
   115    49   119 1   
   116    49   120 1   
   117    50    51 1   
   118    50   121 1   
   119    50   122 1   
   120    51    52 1   
   121    51   123 1   
   122    51   124 1   
   123    52    53 1   
   124    52   125 1   
   125    52   126 1   
   126    53   127 1   
   127    53   128 1   
   128    53   129 1   
@<TRIPOS>SUBSTRUCTURE
     1 PGK         1 TEMP              0 ****  ****    0 ROOT
