@<TRIPOS>MOLECULE
PGK
  129   128     1     0     0
SMALL
abcg2


@<TRIPOS>ATOM
      1 C48        -17.2510     7.3680     1.3910 c3         1 PGK      -0.088100
      2 C47        -16.6880     5.9620     1.5430 c3         1 PGK      -0.075400
      3 C46        -15.4960     5.7020     0.6300 c3         1 PGK      -0.075400
      4 C45        -14.9220     4.2980     0.7690 c3         1 PGK      -0.074400
      5 C44        -13.7100     4.0540    -0.1220 c3         1 PGK      -0.074400
      6 C43        -13.1390     2.6480     0.0090 c3         1 PGK      -0.073400
      7 C42        -11.8880     2.4370    -0.8350 c3         1 PGK      -0.076400
      8 C41        -11.3360     1.0220    -0.7060 c3         1 PGK      -0.074400
      9 C40         -9.9540     0.8370    -1.3060 c3         1 PGK       0.109300
     10 BR2        -10.0050     1.0420    -3.2700 br         1 PGK      -0.258000
     11 C39         -9.2440    -0.4450    -0.9070 c3         1 PGK       0.110300
     12 BR1        -10.2310    -2.0360    -1.5330 br         1 PGK      -0.259000
     13 C38         -7.7820    -0.5240    -1.3100 c3         1 PGK      -0.074400
     14 C37         -6.9940    -1.6060    -0.5830 c3         1 PGK      -0.076400
     15 C36         -5.4960    -1.5080    -0.8450 c3         1 PGK      -0.074400
     16 C35         -4.6950    -2.5260    -0.0440 c3         1 PGK      -0.075400
     17 C34         -3.1880    -2.3850    -0.2170 c3         1 PGK      -0.076400
     18 C33         -2.4090    -3.3440     0.6740 c3         1 PGK      -0.068400
     19 C32         -0.9010    -3.1340     0.5690 c3         1 PGK      -0.140400
     20 C31         -0.1330    -4.0130     1.5180 c          1 PGK       0.602100
     21 O31         -0.4360    -5.1460     1.7970 o          1 PGK      -0.512000
     22 O2           0.9290    -3.3900     2.0210 os         1 PGK      -0.417100
     23 C2           1.7510    -4.0640     2.9810 c3         1 PGK       0.149300
     24 C1           2.8180    -4.8990     2.3000 c3         1 PGK       0.211600
     25 O3P          3.6070    -4.0960     1.4540 os         1 PGK      -0.579400
     26 P            4.6530    -4.8600     0.4440 p5         1 PGK       1.392800
     27 O1P          5.2880    -6.0260     1.1390 o          1 PGK      -0.826000
     28 O2P          4.0050    -5.0580    -0.8920 o          1 PGK      -0.826000
     29 O4P          5.7010    -3.6000     0.3690 os         1 PGK      -0.576400
     30 C4           6.9050    -3.8230    -0.3340 c3         1 PGK       0.192600
     31 C5           7.5990    -2.4940    -0.5840 c3         1 PGK       0.156300
     32 O5           6.8140    -1.6210    -1.3600 oh         1 PGK      -0.639000
     33 C6           8.9700    -2.7360    -1.1940 c3         1 PGK       0.118600
     34 O6           9.6300    -1.5010    -1.3390 oh         1 PGK      -0.652000
     35 C3           2.2550    -3.0070     3.9430 c3         1 PGK       0.175600
     36 O3           2.9680    -1.9710     3.2780 os         1 PGK      -0.432100
     37 C11          4.3010    -1.9540     3.3290 c          1 PGK       0.623100
     38 O11          4.9540    -2.6890     4.0240 o          1 PGK      -0.501000
     39 C12          4.8600    -0.8980     2.4190 c3         1 PGK      -0.139400
     40 C13          6.3050    -0.5380     2.7190 c3         1 PGK      -0.061400
     41 C14          6.8630     0.4800     1.7330 c3         1 PGK      -0.083400
     42 C15          8.3260     0.8100     2.0030 c3         1 PGK      -0.068400
     43 C16          8.9990     1.5620     0.8630 c3         1 PGK      -0.079400
     44 C17         10.4140     2.0170     1.2010 c3         1 PGK      -0.071400
     45 C18         11.1270     2.6890     0.0360 c3         1 PGK      -0.074400
     46 C19         12.5250     3.1840     0.3910 c3         1 PGK      -0.074400
     47 C20         13.2470     3.8420    -0.7780 c3         1 PGK      -0.074400
     48 C21         14.6370     4.3510    -0.4170 c3         1 PGK      -0.074400
     49 C22         15.3610     5.0060    -1.5870 c3         1 PGK      -0.074400
     50 C23         16.7500     5.5190    -1.2260 c3         1 PGK      -0.074400
     51 C24         17.4710     6.1750    -2.3970 c3         1 PGK      -0.075400
     52 C25         18.8630     6.6830    -2.0410 c3         1 PGK      -0.075400
     53 C26         19.5700     7.3440    -3.2160 c3         1 PGK      -0.088100
     54 H481       -18.0980     7.5370     2.0570 hc         1 PGK       0.031033
     55 H482       -16.4940     8.1210     1.6220 hc         1 PGK       0.031033
     56 H483       -17.5910     7.5470     0.3700 hc         1 PGK       0.031033
     57 H471       -17.4720     5.2270     1.3340 hc         1 PGK       0.036700
     58 H472       -16.3880     5.7960     2.5830 hc         1 PGK       0.036700
     59 H461       -14.7120     6.4380     0.8420 hc         1 PGK       0.037700
     60 H462       -15.7930     5.8710    -0.4120 hc         1 PGK       0.037700
     61 H451       -15.7000     3.5620     0.5360 hc         1 PGK       0.037200
     62 H452       -14.6430     4.1220     1.8140 hc         1 PGK       0.037200
     63 H441       -12.9310     4.7850     0.1210 hc         1 PGK       0.038700
     64 H442       -13.9820     4.2390    -1.1670 hc         1 PGK       0.038700
     65 H431       -13.9040     1.9170    -0.2760 hc         1 PGK       0.038700
     66 H432       -12.9060     2.4480     1.0610 hc         1 PGK       0.038700
     67 H421       -11.1210     3.1550    -0.5260 hc         1 PGK       0.046700
     68 H422       -12.1160     2.6600    -1.8810 hc         1 PGK       0.046700
     69 H411       -12.0450     0.3000    -1.1190 hc         1 PGK       0.057700
     70 H412       -11.2340     0.7810     0.3580 hc         1 PGK       0.057700
     71 H40         -9.3080     1.6500    -0.9610 h1         1 PGK       0.078700
     72 H39         -9.3140    -0.4920     0.1840 h1         1 PGK       0.077700
     73 H381        -7.3500     0.4510    -1.0550 hc         1 PGK       0.058200
     74 H382        -7.6780    -0.6330    -2.3920 hc         1 PGK       0.058200
     75 H371        -7.3490    -2.5980    -0.8750 hc         1 PGK       0.045200
     76 H372        -7.1740    -1.5170     0.4940 hc         1 PGK       0.045200
     77 H361        -5.1500    -0.5000    -0.5900 hc         1 PGK       0.039200
     78 H362        -5.2980    -1.6380    -1.9140 hc         1 PGK       0.039200
     79 H351        -5.0040    -3.5390    -0.3230 hc         1 PGK       0.038200
     80 H352        -4.9430    -2.4150     1.0180 hc         1 PGK       0.038200
     81 H341        -2.8940    -1.3570     0.0170 hc         1 PGK       0.039200
     82 H342        -2.9170    -2.5500    -1.2660 hc         1 PGK       0.039200
     83 H331        -2.6610    -4.3750     0.4160 hc         1 PGK       0.047700
     84 H332        -2.7220    -3.1960     1.7120 hc         1 PGK       0.047700
     85 H321        -0.6470    -2.0880     0.7450 hc         1 PGK       0.076700
     86 H322        -0.5600    -3.3680    -0.4460 hc         1 PGK       0.076700
     87 H2           1.1470    -4.7520     3.5810 h1         1 PGK       0.048700
     88 H11          3.4190    -5.3720     3.0840 h1         1 PGK       0.038700
     89 H12          2.3240    -5.7060     1.7460 h1         1 PGK       0.038700
     90 H41          7.5710    -4.4770     0.2400 h1         1 PGK       0.023700
     91 H42          6.7170    -4.3200    -1.2960 h1         1 PGK       0.023700
     92 H5           7.7380    -1.9910     0.3780 h1         1 PGK       0.088700
     93 HO5          6.6550    -2.0320    -2.2170 ho         1 PGK       0.434000
     94 H61          9.5280    -3.4190    -0.5410 h1         1 PGK       0.017200
     95 H62          8.8540    -3.2470    -2.1630 h1         1 PGK       0.017200
     96 HO6         10.4890    -1.6680    -1.7350 ho         1 PGK       0.426000
     97 H31          2.8590    -3.4830     4.7140 h1         1 PGK       0.051700
     98 H32          1.4030    -2.5300     4.4300 h1         1 PGK       0.051700
     99 H121         4.2190    -0.0130     2.4530 hc         1 PGK       0.083700
    100 H122         4.7820    -1.2920     1.4000 hc         1 PGK       0.083700
    101 H131         6.9200    -1.4410     2.6820 hc         1 PGK       0.044700
    102 H132         6.3900    -0.1500     3.7380 hc         1 PGK       0.044700
    103 H141         6.2650     1.3980     1.7660 hc         1 PGK       0.047700
    104 H142         6.7570     0.0910     0.7160 hc         1 PGK       0.047700
    105 H151         8.8750    -0.1210     2.1830 hc         1 PGK       0.030700
    106 H152         8.4000     1.3880     2.9310 hc         1 PGK       0.030700
    107 H161         8.3980     2.4330     0.5830 hc         1 PGK       0.047200
    108 H162         9.0290     0.9080    -0.0140 hc         1 PGK       0.047200
    109 H171        11.0020     1.1540     1.5350 hc         1 PGK       0.031200
    110 H172        10.3780     2.7060     2.0520 hc         1 PGK       0.031200
    111 H181        10.5260     3.5320    -0.3230 hc         1 PGK       0.038200
    112 H182        11.1940     1.9860    -0.8020 hc         1 PGK       0.038200
    113 H191        13.1240     2.3440     0.7610 hc         1 PGK       0.034200
    114 H192        12.4550     3.8950     1.2210 hc         1 PGK       0.034200
    115 H201        12.6430     4.6750    -1.1560 hc         1 PGK       0.036700
    116 H202        13.3270     3.1270    -1.6040 hc         1 PGK       0.036700
    117 H211        15.2410     3.5200    -0.0360 hc         1 PGK       0.035700
    118 H212        14.5560     5.0690     0.4070 hc         1 PGK       0.035700
    119 H221        14.7560     5.8370    -1.9690 hc         1 PGK       0.037200
    120 H222        15.4430     4.2880    -2.4100 hc         1 PGK       0.037200
    121 H231        17.3550     4.6890    -0.8450 hc         1 PGK       0.036200
    122 H232        16.6680     6.2370    -0.4030 hc         1 PGK       0.036200
    123 H241        16.8680     7.0080    -2.7750 hc         1 PGK       0.036700
    124 H242        17.5490     5.4580    -3.2220 hc         1 PGK       0.036700
    125 H251        19.4680     5.8500    -1.6680 hc         1 PGK       0.036200
    126 H252        18.7870     7.3950    -1.2130 hc         1 PGK       0.036200
    127 H261        20.5680     7.6890    -2.9450 hc         1 PGK       0.030033
    128 H262        19.6750     6.6520    -4.0550 hc         1 PGK       0.030033
    129 H263        19.0080     8.2100    -3.5740 hc         1 PGK       0.030033
@<TRIPOS>BOND
     1     1     2 1   
     2     1    54 1   
     3     1    55 1   
     4     1    56 1   
     5     2     3 1   
     6     2    57 1   
     7     2    58 1   
     8     3     4 1   
     9     3    59 1   
    10     3    60 1   
    11     4     5 1   
    12     4    61 1   
    13     4    62 1   
    14     5     6 1   
    15     5    63 1   
    16     5    64 1   
    17     6     7 1   
    18     6    65 1   
    19     6    66 1   
    20     7     8 1   
    21     7    67 1   
    22     7    68 1   
    23     8     9 1   
    24     8    69 1   
    25     8    70 1   
    26     9    10 1   
    27     9    11 1   
    28     9    71 1   
    29    11    12 1   
    30    11    13 1   
    31    11    72 1   
    32    13    14 1   
    33    13    73 1   
    34    13    74 1   
    35    14    15 1   
    36    14    75 1   
    37    14    76 1   
    38    15    16 1   
    39    15    77 1   
    40    15    78 1   
    41    16    17 1   
    42    16    79 1   
    43    16    80 1   
    44    17    18 1   
    45    17    81 1   
    46    17    82 1   
    47    18    19 1   
    48    18    83 1   
    49    18    84 1   
    50    19    20 1   
    51    19    85 1   
    52    19    86 1   
    53    20    21 2   
    54    20    22 1   
    55    22    23 1   
    56    23    24 1   
    57    23    35 1   
    58    23    87 1   
    59    24    25 1   
    60    24    88 1   
    61    24    89 1   
    62    25    26 1   
    63    26    27 1   
    64    26    28 1   
    65    26    29 1   
    66    29    30 1   
    67    30    31 1   
    68    30    90 1   
    69    30    91 1   
    70    31    32 1   
    71    31    33 1   
    72    31    92 1   
    73    32    93 1   
    74    33    34 1   
    75    33    94 1   
    76    33    95 1   
    77    34    96 1   
    78    35    36 1   
    79    35    97 1   
    80    35    98 1   
    81    36    37 1   
    82    37    38 2   
    83    37    39 1   
    84    39    40 1   
    85    39    99 1   
    86    39   100 1   
    87    40    41 1   
    88    40   101 1   
    89    40   102 1   
    90    41    42 1   
    91    41   103 1   
    92    41   104 1   
    93    42    43 1   
    94    42   105 1   
    95    42   106 1   
    96    43    44 1   
    97    43   107 1   
    98    43   108 1   
    99    44    45 1   
   100    44   109 1   
   101    44   110 1   
   102    45    46 1   
   103    45   111 1   
   104    45   112 1   
   105    46    47 1   
   106    46   113 1   
   107    46   114 1   
   108    47    48 1   
   109    47   115 1   
   110    47   116 1   
   111    48    49 1   
   112    48   117 1   
   113    48   118 1   
   114    49    50 1   
   115    49   119 1   
   116    49   120 1   
   117    50    51 1   
   118    50   121 1   
   119    50   122 1   
   120    51    52 1   
   121    51   123 1   
   122    51   124 1   
   123    52    53 1   
   124    52   125 1   
   125    52   126 1   
   126    53   127 1   
   127    53   128 1   
   128    53   129 1   
@<TRIPOS>SUBSTRUCTURE
     1 PGK         1 TEMP              0 ****  ****    0 ROOT
