@<TRIPOS>MOLECULE
PGL
   10     9     1     0     0
SMALL
No Charge or Current Charge


@<TRIPOS>ATOM
      1 N            2.5020     0.0940    -0.0060 n8         1 PGL      -0.963200
      2 C            1.2160    -0.4740    -0.5630 c3         1 PGL      -0.176200
      3 P           -0.5450     0.0560     0.0020 p5         1 PGL       1.308500
      4 O1          -0.6450    -0.1010     1.4840 o          1 PGL      -0.940167
      5 O2          -0.7760     1.4830    -0.3750 o          1 PGL      -0.940167
      6 HN1          2.5340    -0.0640     1.0100 hn         1 PGL       0.339500
      7 HN2          3.3060    -0.4280    -0.3730 hn         1 PGL       0.339500
      8 H1           1.2520    -0.3250    -1.6500 h1         1 PGL      -0.013800
      9 H2           1.2640    -1.5570    -0.3910 h1         1 PGL      -0.013800
     10 O3          -1.5530    -0.8170    -0.6710 o          1 PGL      -0.940167
@<TRIPOS>BOND
     1     1     2 1   
     2     1     6 1   
     3     1     7 1   
     4     2     3 1   
     5     2     8 1   
     6     2     9 1   
     7     3     4 1   
     8     3     5 1   
     9     3    10 1   
@<TRIPOS>SUBSTRUCTURE
     1 PGL         1 TEMP              0 ****  ****    0 ROOT
