@<TRIPOS>MOLECULE
PGL
   10     9     1     0     0
SMALL
abcg2


@<TRIPOS>ATOM
      1 N            2.3280     0.1180    -0.0040 n8         1 PGL      -0.963200
      2 C            1.1940    -0.5350    -0.6570 c3         1 PGL      -0.176200
      3 P           -0.4330     0.0600     0.0290 p5         1 PGL       1.308500
      4 O1          -0.2890    -0.1630     1.5450 o          1 PGL      -0.940167
      5 O2          -0.5620     1.5370    -0.3620 o          1 PGL      -0.940167
      6 HN1          2.1600     0.0880     0.9940 hn         1 PGL       0.339500
      7 HN2          3.1740    -0.4190    -0.1540 hn         1 PGL       0.339500
      8 H1           1.2400    -0.3400    -1.7350 h1         1 PGL      -0.013800
      9 H2           1.2220    -1.6320    -0.5530 h1         1 PGL      -0.013800
     10 O3          -1.4790    -0.8470    -0.6360 o          1 PGL      -0.940167
@<TRIPOS>BOND
     1     1     2 1   
     2     1     6 1   
     3     1     7 1   
     4     2     3 1   
     5     2     8 1   
     6     2     9 1   
     7     3     4 1   
     8     3     5 1   
     9     3    10 1   
@<TRIPOS>SUBSTRUCTURE
     1 PGL         1 TEMP              0 ****  ****    0 ROOT
