@<TRIPOS>MOLECULE
PGO
   13    12     1     0     0
SMALL
No Charge or Current Charge


@<TRIPOS>ATOM
      1 C1           0.9790    -0.1460    -0.6390 c3         1 PGO       0.168600
      2 C2          -0.5620    -0.0200    -0.4140 c3         1 PGO       0.175300
      3 C3          -0.9830     1.3230     0.2190 c3         1 PGO      -0.124100
      4 O1           1.7270    -0.0350     0.5890 oh         1 PGO      -0.647000
      5 O2          -1.0550    -1.0970     0.4010 oh         1 PGO      -0.649000
      6 H11          1.1870    -1.1120    -1.1200 h1         1 PGO       0.022700
      7 H12          1.2950     0.6380    -1.3390 h1         1 PGO       0.022700
      8 H2          -1.0360    -0.0770    -1.4040 h1         1 PGO       0.022700
      9 H31         -0.6210     2.1610    -0.3890 hc         1 PGO       0.043700
     10 H32         -2.0750     1.3990     0.2810 hc         1 PGO       0.043700
     11 H33         -0.5730     1.4300     1.2300 hc         1 PGO       0.043700
     12 HO1          2.6710    -0.1830     0.3620 ho         1 PGO       0.439000
     13 HO2         -2.0240    -0.9640     0.4940 ho         1 PGO       0.439000
@<TRIPOS>BOND
     1     1     2 1   
     2     1     4 1   
     3     1     6 1   
     4     1     7 1   
     5     2     3 1   
     6     2     5 1   
     7     2     8 1   
     8     3     9 1   
     9     3    10 1   
    10     3    11 1   
    11     4    12 1   
    12     5    13 1   
@<TRIPOS>SUBSTRUCTURE
     1 PGO         1 TEMP              0 ****  ****    0 ROOT
