@<TRIPOS>MOLECULE
PGO
   13    12     1     0     0
SMALL
bcc


@<TRIPOS>ATOM
      1 C1           0.9330    -0.1620    -0.6320 c3         1 PGO       0.145400
      2 C2          -0.5580    -0.0100    -0.4120 c3         1 PGO       0.152100
      3 C3          -0.9320     1.3220     0.2220 c3         1 PGO      -0.124100
      4 O1           1.6220    -0.0340     0.5900 oh         1 PGO      -0.584800
      5 O2          -1.0000    -1.1060     0.3670 oh         1 PGO      -0.586800
      6 H11          1.1240    -1.1360    -1.1030 h1         1 PGO       0.022700
      7 H12          1.2400     0.6040    -1.3560 h1         1 PGO       0.022700
      8 H2          -1.0080    -0.0480    -1.4150 h1         1 PGO       0.022700
      9 H31         -0.5780     2.1530    -0.3900 hc         1 PGO       0.043700
     10 H32         -2.0170     1.4200     0.3040 hc         1 PGO       0.043700
     11 H33         -0.5070     1.4290     1.2200 hc         1 PGO       0.043700
     12 HO1          2.5640    -0.0820     0.4060 ho         1 PGO       0.400000
     13 HO2         -1.9530    -1.0330     0.4690 ho         1 PGO       0.400000
@<TRIPOS>BOND
     1     1     2 1   
     2     1     4 1   
     3     1     6 1   
     4     1     7 1   
     5     2     3 1   
     6     2     5 1   
     7     2     8 1   
     8     3     9 1   
     9     3    10 1   
    10     3    11 1   
    11     4    12 1   
    12     5    13 1   
@<TRIPOS>SUBSTRUCTURE
     1 PGO         1 TEMP              0 ****  ****    0 ROOT
