@<TRIPOS>MOLECULE
PGQ
   13    12     1     0     0
SMALL
No Charge or Current Charge


@<TRIPOS>ATOM
      1 C1          -0.7340     0.4220    -0.6900 c3         1 PGQ       0.129600
      2 C2          -0.0110    -0.2900     0.4860 c3         1 PGQ       0.166300
      3 C3          -0.8020    -0.2100     1.8070 c3         1 PGQ      -0.130100
      4 O1           0.0870     0.3910    -1.8700 oh         1 PGQ      -0.645000
      5 O2           1.2750     0.3120     0.6770 oh         1 PGQ      -0.640000
      6 H11         -1.6900    -0.0830    -0.8800 h1         1 PGQ       0.016700
      7 H12         -0.9550     1.4600    -0.4090 h1         1 PGQ       0.016700
      8 H2           0.1040    -1.3500     0.2180 h1         1 PGQ       0.083700
      9 H31         -0.2700    -0.7370     2.6070 hc         1 PGQ       0.042033
     10 H32         -0.9460     0.8320     2.1150 hc         1 PGQ       0.042033
     11 H33         -1.7880    -0.6740     1.6910 hc         1 PGQ       0.042033
     12 HO1         -0.4330     0.8060    -2.5940 ho         1 PGQ       0.440000
     13 HO2          1.5760     0.5450    -0.2310 ho         1 PGQ       0.434000
@<TRIPOS>BOND
     1     1     2 1   
     2     1     4 1   
     3     1     6 1   
     4     1     7 1   
     5     2     3 1   
     6     2     5 1   
     7     2     8 1   
     8     3     9 1   
     9     3    10 1   
    10     3    11 1   
    11     4    12 1   
    12     5    13 1   
@<TRIPOS>SUBSTRUCTURE
     1 PGQ         1 TEMP              0 ****  ****    0 ROOT
