@<TRIPOS>MOLECULE
PGQ
   13    12     1     0     0
SMALL
abcg2


@<TRIPOS>ATOM
      1 C1          -0.6980     0.2820    -0.7700 c3         1 PGQ       0.129600
      2 C2           0.0010    -0.3180     0.4390 c3         1 PGQ       0.166300
      3 C3          -0.7620     0.0140     1.7130 c3         1 PGQ      -0.130100
      4 O1          -0.0380    -0.1220    -1.9450 oh         1 PGQ      -0.645000
      5 O2           1.3560     0.0760     0.5160 oh         1 PGQ      -0.640000
      6 H11         -1.7460    -0.0460    -0.7590 h1         1 PGQ       0.016700
      7 H12         -0.7120     1.3780    -0.6680 h1         1 PGQ       0.016700
      8 H2           0.0220    -1.4050     0.3160 h1         1 PGQ       0.083700
      9 H31         -0.2780    -0.4310     2.5820 hc         1 PGQ       0.042033
     10 H32         -0.8170     1.0940     1.8730 hc         1 PGQ       0.042033
     11 H33         -1.7830    -0.3660     1.6690 hc         1 PGQ       0.042033
     12 HO1         -0.5170     0.2390    -2.6950 ho         1 PGQ       0.440000
     13 HO2          1.3860     1.0280     0.6560 ho         1 PGQ       0.434000
@<TRIPOS>BOND
     1     1     2 1   
     2     1     4 1   
     3     1     6 1   
     4     1     7 1   
     5     2     3 1   
     6     2     5 1   
     7     2     8 1   
     8     3     9 1   
     9     3    10 1   
    10     3    11 1   
    11     4    12 1   
    12     5    13 1   
@<TRIPOS>SUBSTRUCTURE
     1 PGQ         1 TEMP              0 ****  ****    0 ROOT
