@<TRIPOS>MOLECULE
PGR
   13    12     1     0     0
SMALL
bcc


@<TRIPOS>ATOM
      1 C1          -0.6660    -0.2700    -0.7230 c3         1 PGR       0.106400
      2 C2           0.0090     0.3250     0.5010 c3         1 PGR       0.142100
      3 C3          -0.7620    -0.0380     1.7620 c3         1 PGR      -0.129100
      4 O1          -0.0020     0.1650    -1.8860 oh         1 PGR      -0.582800
      5 O2           1.3710    -0.0460     0.5890 oh         1 PGR      -0.577800
      6 H11         -0.6590    -1.3670    -0.6370 h1         1 PGR       0.017200
      7 H12         -1.7200     0.0370    -0.7180 h1         1 PGR       0.017200
      8 H2           0.0130     1.4150     0.3940 h1         1 PGR       0.084700
      9 H31         -0.2960     0.4030     2.6430 hc         1 PGR       0.042033
     10 H32         -1.7900     0.3250     1.7120 hc         1 PGR       0.042033
     11 H33         -0.8000    -1.1210     1.9060 hc         1 PGR       0.042033
     12 HO1         -0.4480    -0.2220    -2.6440 ho         1 PGR       0.401000
     13 HO2          1.4150    -1.0000     0.7110 ho         1 PGR       0.395000
@<TRIPOS>BOND
     1     1     2 1   
     2     1     4 1   
     3     1     6 1   
     4     1     7 1   
     5     2     3 1   
     6     2     5 1   
     7     2     8 1   
     8     3     9 1   
     9     3    10 1   
    10     3    11 1   
    11     4    12 1   
    12     5    13 1   
@<TRIPOS>SUBSTRUCTURE
     1 PGR         1 TEMP              0 ****  ****    0 ROOT
