@<TRIPOS>MOLECULE
PGR
   13    12     1     0     0
SMALL
No Charge or Current Charge


@<TRIPOS>ATOM
      1 C1          -0.6850    -0.3550    -0.6680 c3         1 PGR       0.129600
      2 C2          -0.0100     0.2800     0.5780 c3         1 PGR       0.165300
      3 C3          -0.8250     0.0680     1.8690 c3         1 PGR      -0.129100
      4 O1           0.1590    -0.2020    -1.8220 oh         1 PGR      -0.645000
      5 O2           1.2910    -0.2970     0.7490 oh         1 PGR      -0.640000
      6 H11         -0.8780    -1.4190    -0.4780 h1         1 PGR       0.017200
      7 H12         -1.6530     0.1350    -0.8390 h1         1 PGR       0.017200
      8 H2           0.0760     1.3620     0.4000 h1         1 PGR       0.084700
      9 H31         -0.3270     0.5430     2.7220 hc         1 PGR       0.042033
     10 H32         -1.8240     0.5100     1.7680 hc         1 PGR       0.042033
     11 H33         -0.9420    -1.0010     2.0880 hc         1 PGR       0.042033
     12 HO1         -0.3320    -0.5720    -2.5900 ho         1 PGR       0.440000
     13 HO2          1.6170    -0.4450    -0.1670 ho         1 PGR       0.434000
@<TRIPOS>BOND
     1     1     2 1   
     2     1     4 1   
     3     1     6 1   
     4     1     7 1   
     5     2     3 1   
     6     2     5 1   
     7     2     8 1   
     8     3     9 1   
     9     3    10 1   
    10     3    11 1   
    11     4    12 1   
    12     5    13 1   
@<TRIPOS>SUBSTRUCTURE
     1 PGR         1 TEMP              0 ****  ****    0 ROOT
