@<TRIPOS>MOLECULE
PGT
  129   128     1     0     0
SMALL
No Charge or Current Charge


@<TRIPOS>ATOM
      1 C48        -19.9250     6.8380     1.1940 c3         1 PGT      -0.088100
      2 C47        -19.0180     5.8750     0.4040 c3         1 PGT      -0.075400
      3 C46        -17.6730     5.5980     1.1090 c3         1 PGT      -0.075400
      4 C45        -16.7640     4.6320     0.3180 c3         1 PGT      -0.074400
      5 C44        -15.4190     4.3530     1.0230 c3         1 PGT      -0.074400
      6 C43        -14.5130     3.3860     0.2300 c3         1 PGT      -0.074400
      7 C42        -13.1690     3.0990     0.9330 c3         1 PGT      -0.074400
      8 C41        -12.2700     2.1280     0.1390 c3         1 PGT      -0.074400
      9 C40        -10.9280     1.8300     0.8420 c3         1 PGT      -0.074400
     10 C39        -10.0380     0.8510     0.0470 c3         1 PGT      -0.074400
     11 C38         -8.7000     0.5360     0.7510 c3         1 PGT      -0.074400
     12 C37         -7.8210    -0.4520    -0.0470 c3         1 PGT      -0.074400
     13 C36         -6.4860    -0.7840     0.6550 c3         1 PGT      -0.074400
     14 C35         -5.6200    -1.7820    -0.1450 c3         1 PGT      -0.074400
     15 C34         -4.2890    -2.1330     0.5560 c3         1 PGT      -0.076400
     16 C33         -3.4410    -3.1440    -0.2470 c3         1 PGT      -0.067400
     17 C32         -2.1120    -3.5200     0.4500 c3         1 PGT      -0.142400
     18 C31         -1.3220    -4.5330    -0.3810 c          1 PGT       0.600100
     19 O31         -1.5470    -5.7360    -0.3590 o          1 PGT      -0.516000
     20 O2          -0.5070    -3.9080    -1.2890 os         1 PGT      -0.415100
     21 C2           0.2680    -4.7010    -2.2250 c3         1 PGT       0.153300
     22 C1           1.3340    -5.5990    -1.5020 c3         1 PGT       0.216600
     23 O3P          2.1320    -4.9150    -0.5140 os         1 PGT      -0.563400
     24 P            3.5220    -4.1740    -0.8670 p5         1 PGT       1.390800
     25 O1P          4.6190    -4.6380     0.0330 o          1 PGT      -0.830000
     26 O2P          3.8980    -4.3540    -2.3000 o          1 PGT      -0.830000
     27 O4P          3.1120    -2.6450    -0.5560 os         1 PGT      -0.568400
     28 C4           3.2870    -2.0400     0.7420 c3         1 PGT       0.191600
     29 C5           2.5100    -2.7840     1.8760 c3         1 PGT       0.161300
     30 O5           1.0890    -2.5840     1.7540 oh         1 PGT      -0.632000
     31 C6           2.9410    -2.2780     3.2770 c3         1 PGT       0.116600
     32 O6           2.1610    -2.9180     4.3020 oh         1 PGT      -0.650000
     33 C3           0.7700    -3.7860    -3.3770 c3         1 PGT       0.174600
     34 O3           1.3390    -2.5730    -2.8530 os         1 PGT      -0.412100
     35 C11          1.8120    -1.6460    -3.7410 c          1 PGT       0.633100
     36 O11          1.7220    -1.7440    -4.9590 o          1 PGT      -0.517000
     37 C12          2.3790    -0.4120    -3.0330 c3         1 PGT      -0.130400
     38 C13          3.9260    -0.4160    -3.0530 c3         1 PGT      -0.065400
     39 C14          4.5500     0.7200    -2.2120 c3         1 PGT      -0.077400
     40 C15          6.0940     0.6970    -2.2280 c3         1 PGT      -0.075400
     41 C16          6.7270     1.8150    -1.3710 c3         1 PGT      -0.075400
     42 C17          8.2720     1.7800    -1.3850 c3         1 PGT      -0.074400
     43 C18          8.9130     2.8780    -0.5090 c3         1 PGT      -0.074400
     44 C19         10.4570     2.8350    -0.5250 c3         1 PGT      -0.074400
     45 C20         11.1060     3.9180     0.3650 c3         1 PGT      -0.074400
     46 C21         12.6500     3.8600     0.3530 c3         1 PGT      -0.074400
     47 C22         13.3050     4.9240     1.2610 c3         1 PGT      -0.074400
     48 C23         14.8480     4.8570     1.2530 c3         1 PGT      -0.074400
     49 C24         15.5030     5.9120     2.1710 c3         1 PGT      -0.075400
     50 C25         17.0450     5.8440     2.1670 c3         1 PGT      -0.075400
     51 C26         17.6960     6.8930     3.0900 c3         1 PGT      -0.088100
     52 H481       -19.4340     7.8090     1.3320 hc         1 PGT       0.030367
     53 H482       -20.8670     7.0030     0.6570 hc         1 PGT       0.030367
     54 H483       -20.1620     6.4250     2.1820 hc         1 PGT       0.030367
     55 H471       -19.5510     4.9290     0.2520 hc         1 PGT       0.036200
     56 H472       -18.8280     6.3000    -0.5890 hc         1 PGT       0.036200
     57 H461       -17.1440     6.5470     1.2620 hc         1 PGT       0.036700
     58 H462       -17.8680     5.1750     2.1030 hc         1 PGT       0.036700
     59 H451       -17.2940     3.6840     0.1650 hc         1 PGT       0.036700
     60 H452       -16.5690     5.0550    -0.6760 hc         1 PGT       0.036700
     61 H441       -14.8870     5.3010     1.1750 hc         1 PGT       0.036700
     62 H442       -15.6130     3.9310     2.0170 hc         1 PGT       0.036700
     63 H431       -15.0470     2.4400     0.0750 hc         1 PGT       0.036700
     64 H432       -14.3170     3.8090    -0.7630 hc         1 PGT       0.036700
     65 H421       -12.6330     4.0440     1.0860 hc         1 PGT       0.037200
     66 H422       -13.3660     2.6780     1.9270 hc         1 PGT       0.037200
     67 H411       -12.8110     1.1860    -0.0180 hc         1 PGT       0.036700
     68 H412       -12.0700     2.5520    -0.8530 hc         1 PGT       0.036700
     69 H401       -10.3840     2.7710     0.9950 hc         1 PGT       0.037200
     70 H402       -11.1280     1.4090     1.8360 hc         1 PGT       0.037200
     71 H391       -10.5880    -0.0850    -0.1140 hc         1 PGT       0.036200
     72 H392        -9.8320     1.2760    -0.9440 hc         1 PGT       0.036200
     73 H381        -8.1450     1.4700     0.9060 hc         1 PGT       0.036700
     74 H382        -8.9050     0.1160     1.7430 hc         1 PGT       0.036700
     75 H371        -8.3820    -1.3810    -0.2090 hc         1 PGT       0.036700
     76 H372        -7.6110    -0.0280    -1.0370 hc         1 PGT       0.036700
     77 H361        -5.9200     0.1420     0.8120 hc         1 PGT       0.037200
     78 H362        -6.6960    -1.2040     1.6470 hc         1 PGT       0.037200
     79 H351        -6.1940    -2.7030    -0.3080 hc         1 PGT       0.037700
     80 H352        -5.4050    -1.3590    -1.1340 hc         1 PGT       0.037700
     81 H341        -3.7090    -1.2150     0.7110 hc         1 PGT       0.037700
     82 H342        -4.5040    -2.5500     1.5480 hc         1 PGT       0.037700
     83 H331        -4.0300    -4.0560    -0.4110 hc         1 PGT       0.049700
     84 H332        -3.2220    -2.7240    -1.2370 hc         1 PGT       0.049700
     85 H321        -1.5200    -2.6040     0.5580 hc         1 PGT       0.073700
     86 H322        -2.3320    -3.9550     1.4320 hc         1 PGT       0.073700
     87 H2          -0.4090    -5.4100    -2.7210 h1         1 PGT       0.048700
     88 H11          0.8120    -6.4330    -1.0180 h1         1 PGT       0.033200
     89 H12          1.9740    -6.0620    -2.2650 h1         1 PGT       0.033200
     90 H41          4.3550    -2.0270     0.9980 h1         1 PGT       0.019700
     91 H42          2.9570    -0.9930     0.7120 h1         1 PGT       0.019700
     92 H5           2.7500    -3.8550     1.8400 h1         1 PGT       0.090700
     93 HO5          0.7450    -2.7370     2.6610 ho         1 PGT       0.424000
     94 H61          4.0080    -2.4960     3.4240 h1         1 PGT       0.016200
     95 H62          2.8140    -1.1890     3.3280 h1         1 PGT       0.016200
     96 HO6          2.5100    -2.6080     5.1680 ho         1 PGT       0.427000
     97 H31          1.5050    -4.3340    -3.9810 h1         1 PGT       0.050200
     98 H32         -0.0830    -3.5500    -4.0250 h1         1 PGT       0.050200
     99 H121         2.0190     0.4910    -3.5390 hc         1 PGT       0.074700
    100 H122         2.0530    -0.4190    -1.9870 hc         1 PGT       0.074700
    101 H131         4.2900    -1.3790    -2.6740 hc         1 PGT       0.055700
    102 H132         4.2730    -0.3340    -4.0910 hc         1 PGT       0.055700
    103 H141         4.1980     1.6870    -2.5930 hc         1 PGT       0.033700
    104 H142         4.1990     0.6350    -1.1760 hc         1 PGT       0.033700
    105 H151         6.4420    -0.2770    -1.8610 hc         1 PGT       0.037700
    106 H152         6.4450     0.7940    -3.2630 hc         1 PGT       0.037700
    107 H161         6.3850     2.7900    -1.7390 hc         1 PGT       0.035700
    108 H162         6.3740     1.7200    -0.3360 hc         1 PGT       0.035700
    109 H171         8.6120     0.7970    -1.0340 hc         1 PGT       0.035700
    110 H172         8.6240     1.8910    -2.4180 hc         1 PGT       0.035700
    111 H181         8.5760     3.8620    -0.8590 hc         1 PGT       0.036200
    112 H182         8.5600     2.7660     0.5240 hc         1 PGT       0.036200
    113 H191        10.7920     1.8460    -0.1870 hc         1 PGT       0.035700
    114 H192        10.8100     2.9580    -1.5560 hc         1 PGT       0.035700
    115 H201        10.7800     4.9080     0.0260 hc         1 PGT       0.037200
    116 H202        10.7500     3.7970     1.3960 hc         1 PGT       0.037200
    117 H211        12.9750     2.8630     0.6770 hc         1 PGT       0.036200
    118 H212        13.0070     3.9950    -0.6760 hc         1 PGT       0.036200
    119 H221        12.9850     5.9220     0.9360 hc         1 PGT       0.037200
    120 H222        12.9450     4.7900     2.2890 hc         1 PGT       0.037200
    121 H231        15.1670     3.8560     1.5700 hc         1 PGT       0.036200
    122 H232        15.2090     4.9980     0.2260 hc         1 PGT       0.036200
    123 H241        15.1860     6.9130     1.8530 hc         1 PGT       0.036700
    124 H242        15.1390     5.7710     3.1970 hc         1 PGT       0.036700
    125 H251        17.3660     4.8440     2.4830 hc         1 PGT       0.036200
    126 H252        17.4140     5.9920     1.1440 hc         1 PGT       0.036200
    127 H261        17.4210     7.9080     2.7780 hc         1 PGT       0.030033
    128 H262        17.3730     6.7500     4.1280 hc         1 PGT       0.030033
    129 H263        18.7890     6.8070     3.0560 hc         1 PGT       0.030033
@<TRIPOS>BOND
     1     1     2 1   
     2     1    52 1   
     3     1    53 1   
     4     1    54 1   
     5     2     3 1   
     6     2    55 1   
     7     2    56 1   
     8     3     4 1   
     9     3    57 1   
    10     3    58 1   
    11     4     5 1   
    12     4    59 1   
    13     4    60 1   
    14     5     6 1   
    15     5    61 1   
    16     5    62 1   
    17     6     7 1   
    18     6    63 1   
    19     6    64 1   
    20     7     8 1   
    21     7    65 1   
    22     7    66 1   
    23     8     9 1   
    24     8    67 1   
    25     8    68 1   
    26     9    10 1   
    27     9    69 1   
    28     9    70 1   
    29    10    11 1   
    30    10    71 1   
    31    10    72 1   
    32    11    12 1   
    33    11    73 1   
    34    11    74 1   
    35    12    13 1   
    36    12    75 1   
    37    12    76 1   
    38    13    14 1   
    39    13    77 1   
    40    13    78 1   
    41    14    15 1   
    42    14    79 1   
    43    14    80 1   
    44    15    16 1   
    45    15    81 1   
    46    15    82 1   
    47    16    17 1   
    48    16    83 1   
    49    16    84 1   
    50    17    18 1   
    51    17    85 1   
    52    17    86 1   
    53    18    19 2   
    54    18    20 1   
    55    20    21 1   
    56    21    22 1   
    57    21    33 1   
    58    21    87 1   
    59    22    23 1   
    60    22    88 1   
    61    22    89 1   
    62    23    24 1   
    63    24    25 1   
    64    24    26 1   
    65    24    27 1   
    66    27    28 1   
    67    28    29 1   
    68    28    90 1   
    69    28    91 1   
    70    29    30 1   
    71    29    31 1   
    72    29    92 1   
    73    30    93 1   
    74    31    32 1   
    75    31    94 1   
    76    31    95 1   
    77    32    96 1   
    78    33    34 1   
    79    33    97 1   
    80    33    98 1   
    81    34    35 1   
    82    35    36 2   
    83    35    37 1   
    84    37    38 1   
    85    37    99 1   
    86    37   100 1   
    87    38    39 1   
    88    38   101 1   
    89    38   102 1   
    90    39    40 1   
    91    39   103 1   
    92    39   104 1   
    93    40    41 1   
    94    40   105 1   
    95    40   106 1   
    96    41    42 1   
    97    41   107 1   
    98    41   108 1   
    99    42    43 1   
   100    42   109 1   
   101    42   110 1   
   102    43    44 1   
   103    43   111 1   
   104    43   112 1   
   105    44    45 1   
   106    44   113 1   
   107    44   114 1   
   108    45    46 1   
   109    45   115 1   
   110    45   116 1   
   111    46    47 1   
   112    46   117 1   
   113    46   118 1   
   114    47    48 1   
   115    47   119 1   
   116    47   120 1   
   117    48    49 1   
   118    48   121 1   
   119    48   122 1   
   120    49    50 1   
   121    49   123 1   
   122    49   124 1   
   123    50    51 1   
   124    50   125 1   
   125    50   126 1   
   126    51   127 1   
   127    51   128 1   
   128    51   129 1   
@<TRIPOS>SUBSTRUCTURE
     1 PGT         1 TEMP              0 ****  ****    0 ROOT
