@<TRIPOS>MOLECULE
PGT
  129   128     1     0     0
SMALL
abcg2


@<TRIPOS>ATOM
      1 C48        -21.0520     6.2150     2.2200 c3         1 PGT      -0.088100
      2 C47        -20.2780     4.9330     1.9470 c3         1 PGT      -0.075400
      3 C46        -18.7990     5.1790     1.6770 c3         1 PGT      -0.075400
      4 C45        -18.0140     3.9020     1.4060 c3         1 PGT      -0.074400
      5 C44        -16.5330     4.1480     1.1440 c3         1 PGT      -0.074400
      6 C43        -15.7480     2.8700     0.8770 c3         1 PGT      -0.074400
      7 C42        -14.2650     3.1120     0.6270 c3         1 PGT      -0.074400
      8 C41        -13.4830     1.8310     0.3630 c3         1 PGT      -0.074400
      9 C40        -11.9970     2.0680     0.1250 c3         1 PGT      -0.074400
     10 C39        -11.2190     0.7840    -0.1370 c3         1 PGT      -0.074400
     11 C38         -9.7300     1.0130    -0.3650 c3         1 PGT      -0.074400
     12 C37         -8.9580    -0.2740    -0.6240 c3         1 PGT      -0.074400
     13 C36         -7.4670    -0.0530    -0.8480 c3         1 PGT      -0.074400
     14 C35         -6.7040    -1.3460    -1.1040 c3         1 PGT      -0.074400
     15 C34         -5.2110    -1.1350    -1.3260 c3         1 PGT      -0.076400
     16 C33         -4.4660    -2.4400    -1.5760 c3         1 PGT      -0.067400
     17 C32         -2.9780    -2.2180    -1.7960 c3         1 PGT      -0.142400
     18 C31         -2.2100    -3.4890    -2.0370 c          1 PGT       0.600100
     19 O31         -2.6850    -4.5960    -2.0350 o          1 PGT      -0.516000
     20 O2          -0.9200    -3.2410    -2.2550 os         1 PGT      -0.415100
     21 C2          -0.0300    -4.3380    -2.4960 c3         1 PGT       0.153300
     22 C1           0.4550    -4.9470    -1.1920 c3         1 PGT       0.216600
     23 O3P          1.0750    -3.9980    -0.3550 os         1 PGT      -0.563400
     24 P            2.6270    -4.2580     0.1050 p5         1 PGT       1.390800
     25 O1P          2.6760    -5.3570     1.1240 o          1 PGT      -0.830000
     26 O2P          3.5400    -4.3240    -1.0820 o          1 PGT      -0.830000
     27 O4P          2.7350    -2.8000     0.8510 os         1 PGT      -0.568400
     28 C4           3.9840    -2.4280     1.3890 c3         1 PGT       0.191600
     29 C5           3.8350    -1.0770     2.0780 c3         1 PGT       0.161300
     30 O5           3.3130    -0.0870     1.2200 oh         1 PGT      -0.632000
     31 C6           5.1620    -0.6670     2.6960 c3         1 PGT       0.116600
     32 O6           4.9810     0.5220     3.4230 oh         1 PGT      -0.650000
     33 C3           1.0590    -3.8390    -3.4190 c3         1 PGT       0.174600
     34 O3           1.6930    -2.7040    -2.8460 os         1 PGT      -0.412100
     35 C11          2.9390    -2.4350    -3.2170 c          1 PGT       0.633100
     36 O11          3.5000    -3.0050    -4.1200 o          1 PGT      -0.517000
     37 C12          3.5230    -1.3050    -2.4170 c3         1 PGT      -0.130400
     38 C13          5.0290    -1.1730    -2.5850 c3         1 PGT      -0.065400
     39 C14          5.6340    -0.1860    -1.5940 c3         1 PGT      -0.077400
     40 C15          7.0940     0.1380    -1.8800 c3         1 PGT      -0.075400
     41 C16          7.7680     0.9040    -0.7500 c3         1 PGT      -0.075400
     42 C17          9.1880     1.3450    -1.0850 c3         1 PGT      -0.074400
     43 C18          9.8970     2.0290     0.0760 c3         1 PGT      -0.074400
     44 C19         11.2990     2.5130    -0.2760 c3         1 PGT      -0.074400
     45 C20         12.0200     3.1730     0.8920 c3         1 PGT      -0.074400
     46 C21         13.4140     3.6750     0.5340 c3         1 PGT      -0.074400
     47 C22         14.1370     4.3280     1.7040 c3         1 PGT      -0.074400
     48 C23         15.5300     4.8340     1.3460 c3         1 PGT      -0.074400
     49 C24         16.2510     5.4880     2.5180 c3         1 PGT      -0.075400
     50 C25         17.6470     5.9890     2.1650 c3         1 PGT      -0.075400
     51 C26         18.3530     6.6490     3.3410 c3         1 PGT      -0.088100
     52 H481       -20.9830     6.9020     1.3740 hc         1 PGT       0.030367
     53 H482       -22.1090     6.0170     2.3990 hc         1 PGT       0.030367
     54 H483       -20.6600     6.7350     3.0970 hc         1 PGT       0.030367
     55 H471       -20.3820     4.2530     2.7980 hc         1 PGT       0.036200
     56 H472       -20.7210     4.4150     1.0910 hc         1 PGT       0.036200
     57 H461       -18.6950     5.8580     0.8230 hc         1 PGT       0.036700
     58 H462       -18.3580     5.7010     2.5340 hc         1 PGT       0.036700
     59 H451       -18.1220     3.2220     2.2580 hc         1 PGT       0.036700
     60 H452       -18.4520     3.3820     0.5470 hc         1 PGT       0.036700
     61 H441       -16.4230     4.8270     0.2920 hc         1 PGT       0.036700
     62 H442       -16.0950     4.6680     2.0040 hc         1 PGT       0.036700
     63 H431       -15.8650     2.1880     1.7260 hc         1 PGT       0.036700
     64 H432       -16.1810     2.3530     0.0130 hc         1 PGT       0.036700
     65 H421       -14.1460     3.7920    -0.2240 hc         1 PGT       0.037200
     66 H422       -13.8320     3.6290     1.4910 hc         1 PGT       0.037200
     67 H411       -13.6090     1.1490     1.2100 hc         1 PGT       0.036700
     68 H412       -13.9120     1.3180    -0.5050 hc         1 PGT       0.036700
     69 H401       -11.8690     2.7490    -0.7240 hc         1 PGT       0.037200
     70 H402       -11.5680     2.5810     0.9930 hc         1 PGT       0.037200
     71 H391       -11.3530     0.1010     0.7090 hc         1 PGT       0.036200
     72 H392       -11.6440     0.2740    -1.0080 hc         1 PGT       0.036200
     73 H381        -9.5940     1.6960    -1.2120 hc         1 PGT       0.036700
     74 H382        -9.3040     1.5230     0.5060 hc         1 PGT       0.036700
     75 H371        -9.0990    -0.9580     0.2200 hc         1 PGT       0.036700
     76 H372        -9.3830    -0.7820    -1.4980 hc         1 PGT       0.036700
     77 H361        -7.3240     0.6280    -1.6940 hc         1 PGT       0.037200
     78 H362        -7.0400     0.4530     0.0250 hc         1 PGT       0.037200
     79 H351        -6.8490    -2.0270    -0.2590 hc         1 PGT       0.037700
     80 H352        -7.1310    -1.8520    -1.9770 hc         1 PGT       0.037700
     81 H341        -5.0620    -0.4580    -2.1750 hc         1 PGT       0.037700
     82 H342        -4.7820    -0.6290    -0.4550 hc         1 PGT       0.037700
     83 H331        -4.6160    -3.1110    -0.7260 hc         1 PGT       0.049700
     84 H332        -4.8960    -2.9430    -2.4460 hc         1 PGT       0.049700
     85 H321        -2.8100    -1.5470    -2.6440 hc         1 PGT       0.073700
     86 H322        -2.5320    -1.7130    -0.9330 hc         1 PGT       0.073700
     87 H2          -0.5490    -5.1330    -3.0410 h1         1 PGT       0.048700
     88 H11         -0.3970    -5.3820    -0.6630 h1         1 PGT       0.033200
     89 H12          1.1130    -5.7830    -1.4560 h1         1 PGT       0.033200
     90 H41          4.3350    -3.1610     2.1260 h1         1 PGT       0.019700
     91 H42          4.7470    -2.3740     0.6010 h1         1 PGT       0.019700
     92 H5           3.0980    -1.1870     2.8810 h1         1 PGT       0.090700
     93 HO5          3.9930     0.1790     0.5940 ho         1 PGT       0.424000
     94 H61          5.5210    -1.4850     3.3330 h1         1 PGT       0.016200
     95 H62          5.9120    -0.5430     1.8980 h1         1 PGT       0.016200
     96 HO6          5.8290     0.7690     3.8040 ho         1 PGT       0.427000
     97 H31          1.7720    -4.6510    -3.5760 h1         1 PGT       0.050200
     98 H32          0.6330    -3.5750    -4.3910 h1         1 PGT       0.050200
     99 H121         3.0270    -0.3780    -2.7240 hc         1 PGT       0.074700
    100 H122         3.2590    -1.4530    -1.3690 hc         1 PGT       0.074700
    101 H131         5.5000    -2.1480    -2.4400 hc         1 PGT       0.055700
    102 H132         5.2660    -0.8600    -3.6060 hc         1 PGT       0.055700
    103 H141         5.0520     0.7420    -1.5820 hc         1 PGT       0.033700
    104 H142         5.5610    -0.6150    -0.5880 hc         1 PGT       0.033700
    105 H151         7.6440    -0.7910    -2.0630 hc         1 PGT       0.037700
    106 H152         7.1540     0.7140    -2.8100 hc         1 PGT       0.037700
    107 H161         7.1680     1.7830    -0.4880 hc         1 PGT       0.035700
    108 H162         7.7860     0.2730     0.1460 hc         1 PGT       0.035700
    109 H171         9.7730     0.4750    -1.4030 hc         1 PGT       0.035700
    110 H172         9.1600     2.0220    -1.9460 hc         1 PGT       0.035700
    111 H181         9.2980     2.8800     0.4210 hc         1 PGT       0.036200
    112 H182         9.9550     1.3370     0.9230 hc         1 PGT       0.036200
    113 H191        11.8940     1.6670    -0.6390 hc         1 PGT       0.035700
    114 H192        11.2370     3.2200    -1.1110 hc         1 PGT       0.035700
    115 H201        11.4190     4.0110     1.2640 hc         1 PGT       0.037200
    116 H202        12.0930     2.4610     1.7210 hc         1 PGT       0.037200
    117 H211        14.0140     2.8390     0.1570 hc         1 PGT       0.036200
    118 H212        13.3390     4.3900    -0.2920 hc         1 PGT       0.036200
    119 H221        13.5350     5.1620     2.0830 hc         1 PGT       0.037200
    120 H222        14.2140     3.6110     2.5290 hc         1 PGT       0.037200
    121 H231        16.1320     4.0000     0.9680 hc         1 PGT       0.036200
    122 H232        15.4530     5.5510     0.5220 hc         1 PGT       0.036200
    123 H241        15.6510     6.3250     2.8930 hc         1 PGT       0.036700
    124 H242        16.3240     4.7730     3.3450 hc         1 PGT       0.036700
    125 H251        18.2480     5.1520     1.7960 hc         1 PGT       0.036200
    126 H252        17.5760     6.7000     1.3360 hc         1 PGT       0.036200
    127 H261        17.7950     7.5180     3.6950 hc         1 PGT       0.030033
    128 H262        18.4530     5.9590     4.1810 hc         1 PGT       0.030033
    129 H263        19.3540     6.9880     3.0710 hc         1 PGT       0.030033
@<TRIPOS>BOND
     1     1     2 1   
     2     1    52 1   
     3     1    53 1   
     4     1    54 1   
     5     2     3 1   
     6     2    55 1   
     7     2    56 1   
     8     3     4 1   
     9     3    57 1   
    10     3    58 1   
    11     4     5 1   
    12     4    59 1   
    13     4    60 1   
    14     5     6 1   
    15     5    61 1   
    16     5    62 1   
    17     6     7 1   
    18     6    63 1   
    19     6    64 1   
    20     7     8 1   
    21     7    65 1   
    22     7    66 1   
    23     8     9 1   
    24     8    67 1   
    25     8    68 1   
    26     9    10 1   
    27     9    69 1   
    28     9    70 1   
    29    10    11 1   
    30    10    71 1   
    31    10    72 1   
    32    11    12 1   
    33    11    73 1   
    34    11    74 1   
    35    12    13 1   
    36    12    75 1   
    37    12    76 1   
    38    13    14 1   
    39    13    77 1   
    40    13    78 1   
    41    14    15 1   
    42    14    79 1   
    43    14    80 1   
    44    15    16 1   
    45    15    81 1   
    46    15    82 1   
    47    16    17 1   
    48    16    83 1   
    49    16    84 1   
    50    17    18 1   
    51    17    85 1   
    52    17    86 1   
    53    18    19 2   
    54    18    20 1   
    55    20    21 1   
    56    21    22 1   
    57    21    33 1   
    58    21    87 1   
    59    22    23 1   
    60    22    88 1   
    61    22    89 1   
    62    23    24 1   
    63    24    25 1   
    64    24    26 1   
    65    24    27 1   
    66    27    28 1   
    67    28    29 1   
    68    28    90 1   
    69    28    91 1   
    70    29    30 1   
    71    29    31 1   
    72    29    92 1   
    73    30    93 1   
    74    31    32 1   
    75    31    94 1   
    76    31    95 1   
    77    32    96 1   
    78    33    34 1   
    79    33    97 1   
    80    33    98 1   
    81    34    35 1   
    82    35    36 2   
    83    35    37 1   
    84    37    38 1   
    85    37    99 1   
    86    37   100 1   
    87    38    39 1   
    88    38   101 1   
    89    38   102 1   
    90    39    40 1   
    91    39   103 1   
    92    39   104 1   
    93    40    41 1   
    94    40   105 1   
    95    40   106 1   
    96    41    42 1   
    97    41   107 1   
    98    41   108 1   
    99    42    43 1   
   100    42   109 1   
   101    42   110 1   
   102    43    44 1   
   103    43   111 1   
   104    43   112 1   
   105    44    45 1   
   106    44   113 1   
   107    44   114 1   
   108    45    46 1   
   109    45   115 1   
   110    45   116 1   
   111    46    47 1   
   112    46   117 1   
   113    46   118 1   
   114    47    48 1   
   115    47   119 1   
   116    47   120 1   
   117    48    49 1   
   118    48   121 1   
   119    48   122 1   
   120    49    50 1   
   121    49   123 1   
   122    49   124 1   
   123    50    51 1   
   124    50   125 1   
   125    50   126 1   
   126    51   127 1   
   127    51   128 1   
   128    51   129 1   
@<TRIPOS>SUBSTRUCTURE
     1 PGT         1 TEMP              0 ****  ****    0 ROOT
