@<TRIPOS>MOLECULE
PGV
  127   126     1     0     0
SMALL
No Charge or Current Charge


@<TRIPOS>ATOM
      1 P           -4.2000     0.7480     2.8200 p5         1 PGV       1.389800
      2 C01         -4.0410     3.2370     0.0320 c3         1 PGV       0.175600
      3 C02         -4.9320     2.0440    -0.4160 c3         1 PGV       0.153300
      4 C03         -5.7530     1.3010     0.6980 c3         1 PGV       0.215600
      5 C04         -2.0190    -0.7780     2.5010 c3         1 PGV       0.192600
      6 C05         -2.7550    -1.9550     1.7830 c3         1 PGV       0.161300
      7 C06         -2.1760    -3.3270     2.2160 c3         1 PGV       0.115600
      8 O01         -4.1390     1.1280    -1.2150 os         1 PGV      -0.417100
      9 O04         -2.0290     4.9180     0.8710 o          1 PGV      -0.515000
     10 O05         -2.6250    -1.8570     0.3520 oh         1 PGV      -0.631000
     11 O06         -2.8090    -4.3910     1.4830 oh         1 PGV      -0.650000
     12 O11         -4.9980     0.3480     1.4760 os         1 PGV      -0.562400
     13 O12         -2.6830     0.4910     2.3340 os         1 PGV      -0.568400
     14 O13         -4.5700    -0.1540     3.9510 o          1 PGV      -0.829500
     15 O14         -4.4180     2.1780     3.1890 o          1 PGV      -0.829500
     16 C1          -4.7650     0.2080    -2.0150 c          1 PGV       0.600100
     17 C2          -3.7590    -0.6610    -2.7730 c3         1 PGV      -0.141400
     18 C3          -3.5150    -0.1150    -4.1990 c3         1 PGV      -0.066400
     19 C4          -2.5010    -0.9550    -5.0060 c3         1 PGV      -0.077400
     20 C5          -2.2780    -0.4160    -6.4350 c3         1 PGV      -0.073400
     21 C6          -1.2660    -1.2520    -7.2480 c3         1 PGV      -0.075400
     22 C7          -1.0590    -0.7180    -8.6830 c3         1 PGV      -0.074400
     23 C8          -0.0350    -1.5420    -9.4930 c3         1 PGV      -0.075400
     24 C9           0.1670    -1.0100   -10.9290 c3         1 PGV      -0.071400
     25 C10          1.2030    -1.8190   -11.7360 c3         1 PGV      -0.045200
     26 C11          1.3980    -1.2660   -13.1350 c2         1 PGV      -0.210200
     27 C12          2.3370    -0.3880   -13.5290 c2         1 PGV      -0.221200
     28 C13          3.3840     0.2760   -12.6550 c3         1 PGV      -0.042200
     29 C14          4.7420    -0.4520   -12.7160 c3         1 PGV      -0.072400
     30 C15          5.8210     0.2020   -11.8250 c3         1 PGV      -0.075400
     31 C16          7.1790    -0.5320   -11.8810 c3         1 PGV      -0.075400
     32 C17          8.2580     0.1250   -10.9920 c3         1 PGV      -0.075400
     33 C18          9.6140    -0.6060   -11.0470 c3         1 PGV      -0.088100
     34 C19         -1.8620     3.7070     0.9450 c          1 PGV       0.633100
     35 C20         -0.5780     3.0610     1.4760 c3         1 PGV      -0.131400
     36 C21         -0.5280     3.0850     3.0230 c3         1 PGV      -0.063400
     37 C22          0.6730     2.3060     3.6030 c3         1 PGV      -0.078400
     38 C23          0.6980     2.3040     5.1480 c3         1 PGV      -0.074400
     39 C24          1.8850     1.5100     5.7370 c3         1 PGV      -0.076400
     40 C25          1.8910     1.4970     7.2810 c3         1 PGV      -0.073400
     41 C26          3.0690     0.6950     7.8780 c3         1 PGV      -0.075400
     42 C27          3.0640     0.6780     9.4220 c3         1 PGV      -0.073400
     43 C28          4.2320    -0.1330    10.0250 c3         1 PGV      -0.075400
     44 C29          4.2170    -0.1510    11.5690 c3         1 PGV      -0.073400
     45 C30          5.3830    -0.9600    12.1780 c3         1 PGV      -0.075400
     46 C31          5.3650    -0.9720    13.7220 c3         1 PGV      -0.074400
     47 C32          6.5320    -1.7760    14.3360 c3         1 PGV      -0.075400
     48 C33          6.5130    -1.7840    15.8800 c3         1 PGV      -0.075400
     49 C34          7.6780    -2.5830    16.4960 c3         1 PGV      -0.088100
     50 H011        -4.5770     3.8270     0.7870 h1         1 PGV       0.050700
     51 H012        -3.8750     3.8860    -0.8390 h1         1 PGV       0.050700
     52 H02         -5.6880     2.5040    -1.0650 h1         1 PGV       0.048700
     53 H031        -6.2150     2.0540     1.3490 h1         1 PGV       0.033700
     54 H032        -6.5900     0.7790     0.2190 h1         1 PGV       0.033700
     55 H041        -0.9910    -0.7130     2.1180 h1         1 PGV       0.019200
     56 H042        -1.9430    -1.0120     3.5720 h1         1 PGV       0.019200
     57 H05         -3.8140    -1.9540     2.0710 h1         1 PGV       0.089700
     58 H061        -1.0920    -3.3380     2.0410 h1         1 PGV       0.016200
     59 H062        -2.3420    -3.4600     3.2940 h1         1 PGV       0.016200
     60 H1          -2.7570    -2.7770     0.0330 ho         1 PGV       0.424000
     61 H06         -2.4490    -5.2370     1.8320 ho         1 PGV       0.427000
     62 H21         -2.8010    -0.6480    -2.2410 hc         1 PGV       0.073200
     63 H22         -4.1480    -1.6830    -2.8410 hc         1 PGV       0.073200
     64 H31         -4.4690    -0.0850    -4.7400 hc         1 PGV       0.050700
     65 H32         -3.1540     0.9200    -4.1310 hc         1 PGV       0.050700
     66 H41         -1.5420    -0.9740    -4.4730 hc         1 PGV       0.037200
     67 H42         -2.8570    -1.9920    -5.0630 hc         1 PGV       0.037200
     68 H51         -3.2380    -0.3970    -6.9670 hc         1 PGV       0.038200
     69 H52         -1.9240     0.6210    -6.3780 hc         1 PGV       0.038200
     70 H61         -0.3020    -1.2590    -6.7240 hc         1 PGV       0.036700
     71 H62         -1.6130    -2.2910    -7.2970 hc         1 PGV       0.036700
     72 H71         -2.0210    -0.7210    -9.2100 hc         1 PGV       0.037200
     73 H72         -0.7240     0.3250    -8.6340 hc         1 PGV       0.037200
     74 H81          0.9290    -1.5340    -8.9680 hc         1 PGV       0.036700
     75 H82         -0.3660    -2.5870    -9.5400 hc         1 PGV       0.036700
     76 H91         -0.7930    -1.0260   -11.4600 hc         1 PGV       0.039200
     77 H92          0.4890     0.0380   -10.8840 hc         1 PGV       0.039200
     78 H101         2.1540    -1.8270   -11.1890 hc         1 PGV       0.044200
     79 H102         0.8800    -2.8660   -11.7940 hc         1 PGV       0.044200
     80 H11          0.6910    -1.6640   -13.8670 ha         1 PGV       0.164000
     81 H12          2.3770    -0.0780   -14.5750 ha         1 PGV       0.162000
     82 H131         3.5180     1.3190   -12.9680 hc         1 PGV       0.043700
     83 H132         3.0480     0.3170   -11.6110 hc         1 PGV       0.043700
     84 H141         4.6020    -1.4960   -12.4070 hc         1 PGV       0.038700
     85 H142         5.0930    -0.4710   -13.7550 hc         1 PGV       0.038700
     86 H151         5.9620     1.2440   -12.1360 hc         1 PGV       0.037200
     87 H152         5.4660     0.2220   -10.7870 hc         1 PGV       0.037200
     88 H161         7.0390    -1.5740   -11.5670 hc         1 PGV       0.036700
     89 H162         7.5340    -0.5550   -12.9190 hc         1 PGV       0.036700
     90 H171         8.4020     1.1660   -11.3050 hc         1 PGV       0.036700
     91 H172         7.9080     0.1490    -9.9530 hc         1 PGV       0.036700
     92 H181        10.3450    -0.1040   -10.4020 hc         1 PGV       0.030367
     93 H182         9.5100    -1.6430   -10.7060 hc         1 PGV       0.030367
     94 H183        10.0090    -0.6150   -12.0700 hc         1 PGV       0.030367
     95 H201         0.2860     3.6100     1.0850 hc         1 PGV       0.073700
     96 H202        -0.5440     2.0160     1.1490 hc         1 PGV       0.073700
     97 H211        -1.4560     2.6570     3.4210 hc         1 PGV       0.053700
     98 H212        -0.4870     4.1260     3.3670 hc         1 PGV       0.053700
     99 H221         1.6060     2.7440     3.2260 hc         1 PGV       0.033200
    100 H222         0.6370     1.2690     3.2450 hc         1 PGV       0.033200
    101 H231        -0.2410     1.8740     5.5200 hc         1 PGV       0.037700
    102 H232         0.7410     3.3390     5.5090 hc         1 PGV       0.037700
    103 H241         2.8250     1.9450     5.3750 hc         1 PGV       0.036200
    104 H242         1.8460     0.4780     5.3680 hc         1 PGV       0.036200
    105 H251         0.9470     1.0700     7.6410 hc         1 PGV       0.036200
    106 H252         1.9360     2.5300     7.6500 hc         1 PGV       0.036200
    107 H261         4.0140     1.1250     7.5240 hc         1 PGV       0.036200
    108 H262         3.0270    -0.3370     7.5060 hc         1 PGV       0.036200
    109 H271         2.1150     0.2550     9.7740 hc         1 PGV       0.036200
    110 H272         3.1130     1.7090     9.7940 hc         1 PGV       0.036200
    111 H281         5.1830     0.2930     9.6780 hc         1 PGV       0.037200
    112 H282         4.1870    -1.1630     9.6510 hc         1 PGV       0.037200
    113 H291         3.2660    -0.5770    11.9140 hc         1 PGV       0.036200
    114 H292         4.2600     0.8800    11.9410 hc         1 PGV       0.036200
    115 H301         6.3340    -0.5360    11.8320 hc         1 PGV       0.037200
    116 H302         5.3380    -1.9920    11.8080 hc         1 PGV       0.037200
    117 H311         4.4140    -1.3980    14.0670 hc         1 PGV       0.036200
    118 H312         5.4060     0.0610    14.0910 hc         1 PGV       0.036200
    119 H321         7.4830    -1.3520    13.9900 hc         1 PGV       0.036700
    120 H322         6.4900    -2.8100    13.9700 hc         1 PGV       0.036700
    121 H331         5.5650    -2.2100    16.2300 hc         1 PGV       0.035700
    122 H332         6.5560    -0.7510    16.2490 hc         1 PGV       0.035700
    123 H341         7.6220    -2.5590    17.5900 hc         1 PGV       0.029700
    124 H342         7.6440    -3.6310    16.1730 hc         1 PGV       0.029700
    125 H343         8.6430    -2.1580    16.1930 hc         1 PGV       0.029700
    126 O03         -2.7790     2.7730     0.5440 os         1 PGV      -0.412100
    127 O02         -5.9780     0.1030    -2.1470 o          1 PGV      -0.515000
@<TRIPOS>BOND
     1     1    12 1   
     2     1    13 1   
     3     1    14 1   
     4     1    15 1   
     5     2     3 1   
     6     2    50 1   
     7     2    51 1   
     8     2   126 1   
     9     3     4 1   
    10     3     8 1   
    11     3    52 1   
    12     4    12 1   
    13     4    53 1   
    14     4    54 1   
    15     5     6 1   
    16     5    13 1   
    17     5    55 1   
    18     5    56 1   
    19     6     7 1   
    20     6    10 1   
    21     6    57 1   
    22     7    11 1   
    23     7    58 1   
    24     7    59 1   
    25     8    16 1   
    26     9    34 2   
    27    10    60 1   
    28    11    61 1   
    29    16    17 1   
    30    16   127 2   
    31    17    18 1   
    32    17    62 1   
    33    17    63 1   
    34    18    19 1   
    35    18    64 1   
    36    18    65 1   
    37    19    20 1   
    38    19    66 1   
    39    19    67 1   
    40    20    21 1   
    41    20    68 1   
    42    20    69 1   
    43    21    22 1   
    44    21    70 1   
    45    21    71 1   
    46    22    23 1   
    47    22    72 1   
    48    22    73 1   
    49    23    24 1   
    50    23    74 1   
    51    23    75 1   
    52    24    25 1   
    53    24    76 1   
    54    24    77 1   
    55    25    26 1   
    56    25    78 1   
    57    25    79 1   
    58    26    27 2   
    59    26    80 1   
    60    27    28 1   
    61    27    81 1   
    62    28    29 1   
    63    28    82 1   
    64    28    83 1   
    65    29    30 1   
    66    29    84 1   
    67    29    85 1   
    68    30    31 1   
    69    30    86 1   
    70    30    87 1   
    71    31    32 1   
    72    31    88 1   
    73    31    89 1   
    74    32    33 1   
    75    32    90 1   
    76    32    91 1   
    77    33    92 1   
    78    33    93 1   
    79    33    94 1   
    80    34    35 1   
    81    34   126 1   
    82    35    36 1   
    83    35    95 1   
    84    35    96 1   
    85    36    37 1   
    86    36    97 1   
    87    36    98 1   
    88    37    38 1   
    89    37    99 1   
    90    37   100 1   
    91    38    39 1   
    92    38   101 1   
    93    38   102 1   
    94    39    40 1   
    95    39   103 1   
    96    39   104 1   
    97    40    41 1   
    98    40   105 1   
    99    40   106 1   
   100    41    42 1   
   101    41   107 1   
   102    41   108 1   
   103    42    43 1   
   104    42   109 1   
   105    42   110 1   
   106    43    44 1   
   107    43   111 1   
   108    43   112 1   
   109    44    45 1   
   110    44   113 1   
   111    44   114 1   
   112    45    46 1   
   113    45   115 1   
   114    45   116 1   
   115    46    47 1   
   116    46   117 1   
   117    46   118 1   
   118    47    48 1   
   119    47   119 1   
   120    47   120 1   
   121    48    49 1   
   122    48   121 1   
   123    48   122 1   
   124    49   123 1   
   125    49   124 1   
   126    49   125 1   
@<TRIPOS>SUBSTRUCTURE
     1 PGV         1 TEMP              0 ****  ****    0 ROOT
