@<TRIPOS>MOLECULE
PGV
  127   126     1     0     0
SMALL
abcg2


@<TRIPOS>ATOM
      1 P           -5.1280     0.7740     2.2120 p5         1 PGV       1.389800
      2 C01         -3.6960     3.7700     0.2650 c3         1 PGV       0.175600
      3 C02         -4.3850     2.8820    -0.7490 c3         1 PGV       0.153300
      4 C03         -5.3400     1.8550    -0.1640 c3         1 PGV       0.215600
      5 C04         -3.7500    -0.6990     3.8770 c3         1 PGV       0.192600
      6 C05         -2.7220    -1.8200     3.9330 c3         1 PGV       0.161300
      7 C06         -2.4630    -2.2010     5.3820 c3         1 PGV       0.115600
      8 O01         -3.3530     2.2570    -1.5210 os         1 PGV      -0.417100
      9 O04         -2.7040     4.5260     2.6380 o          1 PGV      -0.515000
     10 O05         -1.5390    -1.5020     3.2370 oh         1 PGV      -0.631000
     11 O06         -1.5820    -3.2950     5.4200 oh         1 PGV      -0.650000
     12 O11         -4.6780     0.9060     0.6390 os         1 PGV      -0.562400
     13 O12         -4.0010    -0.3770     2.5270 os         1 PGV      -0.568400
     14 O13         -6.5040     0.1830     2.2900 o          1 PGV      -0.829500
     15 O14         -4.8300     2.0300     2.9730 o          1 PGV      -0.829500
     16 C1          -3.5850     1.9450    -2.7940 c          1 PGV       0.600100
     17 C2          -2.3600     1.3540    -3.4360 c3         1 PGV      -0.141400
     18 C3          -2.5500     0.9620    -4.8910 c3         1 PGV      -0.066400
     19 C4          -1.2620     0.4160    -5.4970 c3         1 PGV      -0.077400
     20 C5          -1.4130     0.0040    -6.9550 c3         1 PGV      -0.073400
     21 C6          -0.1140    -0.5140    -7.5600 c3         1 PGV      -0.075400
     22 C7          -0.2490    -0.9380    -9.0170 c3         1 PGV      -0.074400
     23 C8           1.0590    -1.4430    -9.6150 c3         1 PGV      -0.075400
     24 C9           0.9300    -1.8750   -11.0690 c3         1 PGV      -0.071400
     25 C10          2.2520    -2.3710   -11.6600 c3         1 PGV      -0.045200
     26 C11          2.0930    -2.8830   -13.0570 c2         1 PGV      -0.210200
     27 C12          2.5600    -2.3340   -14.1780 c2         1 PGV      -0.221200
     28 C13          3.3830    -1.0900   -14.3080 c3         1 PGV      -0.042200
     29 C14          4.8300    -1.3910   -14.7020 c3         1 PGV      -0.072400
     30 C15          5.6470    -0.1320   -14.9650 c3         1 PGV      -0.075400
     31 C16          7.0990    -0.4210   -15.3220 c3         1 PGV      -0.075400
     32 C17          7.9090     0.8350   -15.6180 c3         1 PGV      -0.075400
     33 C18          9.3620     0.5370   -15.9620 c3         1 PGV      -0.088100
     34 C19         -2.3970     3.4420     2.2050 c          1 PGV       0.633100
     35 C20         -1.5140     2.4480     2.9050 c3         1 PGV      -0.131400
     36 C21         -1.2200     2.8050     4.3540 c3         1 PGV      -0.063400
     37 C22         -0.5110     1.6670     5.0740 c3         1 PGV      -0.078400
     38 C23         -0.0400     2.0150     6.4790 c3         1 PGV      -0.074400
     39 C24          0.6170     0.8320     7.1800 c3         1 PGV      -0.076400
     40 C25          1.1380     1.1600     8.5730 c3         1 PGV      -0.073400
     41 C26          1.8530    -0.0140     9.2290 c3         1 PGV      -0.075400
     42 C27          2.4090     0.3000    10.6130 c3         1 PGV      -0.073400
     43 C28          3.2650    -0.8280    11.1770 c3         1 PGV      -0.075400
     44 C29          3.8410    -0.5300    12.5560 c3         1 PGV      -0.073400
     45 C30          4.8090    -1.6040    13.0400 c3         1 PGV      -0.075400
     46 C31          5.4000    -1.3150    14.4140 c3         1 PGV      -0.074400
     47 C32          6.4090    -2.3630    14.8640 c3         1 PGV      -0.075400
     48 C33          7.0120    -2.0760    16.2340 c3         1 PGV      -0.075400
     49 C34          8.0250    -3.1280    16.6650 c3         1 PGV      -0.088100
     50 H011        -4.4550     4.2110     0.9130 h1         1 PGV       0.050700
     51 H012        -3.1800     4.5860    -0.2480 h1         1 PGV       0.050700
     52 H02         -4.9830     3.5440    -1.3830 h1         1 PGV       0.048700
     53 H031        -6.1120     2.4120     0.3800 h1         1 PGV       0.033700
     54 H032        -5.8510     1.3370    -0.9790 h1         1 PGV       0.033700
     55 H041        -3.3820     0.1790     4.4230 h1         1 PGV       0.019200
     56 H042        -4.6630    -1.0330     4.3850 h1         1 PGV       0.019200
     57 H05         -3.1400    -2.6910     3.4170 h1         1 PGV       0.089700
     58 H061        -2.0520    -1.3320     5.9210 h1         1 PGV       0.016200
     59 H062        -3.4240    -2.4330     5.8590 h1         1 PGV       0.016200
     60 H1          -1.0510    -0.8340     3.7280 ho         1 PGV       0.424000
     61 H06         -1.4730    -3.5570     6.3390 ho         1 PGV       0.427000
     62 H21         -1.5480     2.0830    -3.3390 hc         1 PGV       0.073200
     63 H22         -2.0470     0.4890    -2.8430 hc         1 PGV       0.073200
     64 H31         -3.3390     0.2090    -4.9740 hc         1 PGV       0.050700
     65 H32         -2.8840     1.8270    -5.4700 hc         1 PGV       0.050700
     66 H41         -0.4760     1.1750    -5.4140 hc         1 PGV       0.037200
     67 H42         -0.9180    -0.4430    -4.9110 hc         1 PGV       0.037200
     68 H51         -2.1860    -0.7680    -7.0380 hc         1 PGV       0.038200
     69 H52         -1.7710     0.8580    -7.5410 hc         1 PGV       0.038200
     70 H61          0.6550     0.2620    -7.4790 hc         1 PGV       0.036700
     71 H62          0.2480    -1.3620    -6.9680 hc         1 PGV       0.036700
     72 H71         -1.0110    -1.7220    -9.0990 hc         1 PGV       0.037200
     73 H72         -0.6170    -0.0940    -9.6100 hc         1 PGV       0.037200
     74 H81          1.8180    -0.6570    -9.5350 hc         1 PGV       0.036700
     75 H82          1.4290    -2.2840    -9.0180 hc         1 PGV       0.036700
     76 H91          0.1780    -2.6680   -11.1500 hc         1 PGV       0.039200
     77 H92          0.5600    -1.0390   -11.6720 hc         1 PGV       0.039200
     78 H101         2.9940    -1.5710   -11.6130 hc         1 PGV       0.044200
     79 H102         2.6350    -3.1800   -11.0280 hc         1 PGV       0.044200
     80 H11          1.5080    -3.7950   -13.1480 ha         1 PGV       0.164000
     81 H12          2.3480    -2.8450   -15.1140 ha         1 PGV       0.162000
     82 H131         2.9350    -0.4530   -15.0780 hc         1 PGV       0.043700
     83 H132         3.3730    -0.5070   -13.3850 hc         1 PGV       0.043700
     84 H141         5.3000    -1.9780   -13.9060 hc         1 PGV       0.038700
     85 H142         4.8430    -2.0240   -15.5950 hc         1 PGV       0.038700
     86 H151         5.1800     0.4370   -15.7760 hc         1 PGV       0.037200
     87 H152         5.6110     0.5160   -14.0820 hc         1 PGV       0.037200
     88 H161         7.5720    -0.9720   -14.5000 hc         1 PGV       0.036700
     89 H162         7.1360    -1.0870   -16.1920 hc         1 PGV       0.036700
     90 H171         7.4420     1.3780   -16.4460 hc         1 PGV       0.036700
     91 H172         7.8650     1.5060   -14.7550 hc         1 PGV       0.036700
     92 H181         9.9150     1.4480   -16.1930 hc         1 PGV       0.030367
     93 H182         9.8710     0.0430   -15.1330 hc         1 PGV       0.030367
     94 H183         9.4340    -0.1210   -16.8310 hc         1 PGV       0.030367
     95 H201        -0.5790     2.3720     2.3390 hc         1 PGV       0.073700
     96 H202        -1.9830     1.4650     2.8310 hc         1 PGV       0.073700
     97 H211        -2.1520     3.0360     4.8750 hc         1 PGV       0.053700
     98 H212        -0.6050     3.7080     4.3940 hc         1 PGV       0.053700
     99 H221         0.3440     1.3220     4.4820 hc         1 PGV       0.033200
    100 H222        -1.2020     0.8190     5.1440 hc         1 PGV       0.033200
    101 H231        -0.8880     2.3720     7.0720 hc         1 PGV       0.037700
    102 H232         0.6700     2.8470     6.4240 hc         1 PGV       0.037700
    103 H241         1.4460     0.4650     6.5640 hc         1 PGV       0.036200
    104 H242        -0.1000     0.0050     7.2460 hc         1 PGV       0.036200
    105 H251         0.3060     1.4900     9.2070 hc         1 PGV       0.036200
    106 H252         1.8270     2.0090     8.5090 hc         1 PGV       0.036200
    107 H261         2.6760    -0.3360     8.5800 hc         1 PGV       0.036200
    108 H262         1.1710    -0.8690     9.2960 hc         1 PGV       0.036200
    109 H271         1.5840     0.5200    11.3000 hc         1 PGV       0.036200
    110 H272         3.0130     1.2120    10.5610 hc         1 PGV       0.036200
    111 H281         4.0870    -1.0260    10.4810 hc         1 PGV       0.037200
    112 H282         2.6760    -1.7510    11.2190 hc         1 PGV       0.037200
    113 H291         3.0260    -0.4170    13.2790 hc         1 PGV       0.036200
    114 H292         4.3610     0.4340    12.5300 hc         1 PGV       0.036200
    115 H301         5.6220    -1.7040    12.3120 hc         1 PGV       0.037200
    116 H302         4.3000    -2.5740    13.0600 hc         1 PGV       0.037200
    117 H311         4.5920    -1.2460    15.1520 hc         1 PGV       0.036200
    118 H312         5.8820    -0.3310    14.4000 hc         1 PGV       0.036200
    119 H321         7.2140    -2.4310    14.1240 hc         1 PGV       0.036700
    120 H322         5.9290    -3.3490    14.8800 hc         1 PGV       0.036700
    121 H331         6.2110    -2.0140    16.9770 hc         1 PGV       0.035700
    122 H332         7.4880    -1.0910    16.2190 hc         1 PGV       0.035700
    123 H341         8.4490    -2.9020    17.6440 hc         1 PGV       0.029700
    124 H342         7.5650    -4.1160    16.7240 hc         1 PGV       0.029700
    125 H343         8.8520    -3.1940    15.9550 hc         1 PGV       0.029700
    126 O03         -2.7610     3.0020     1.0080 os         1 PGV      -0.412100
    127 O02         -4.6420     2.1280    -3.3450 o          1 PGV      -0.515000
@<TRIPOS>BOND
     1     1    12 1   
     2     1    13 1   
     3     1    14 1   
     4     1    15 1   
     5     2     3 1   
     6     2    50 1   
     7     2    51 1   
     8     2   126 1   
     9     3     4 1   
    10     3     8 1   
    11     3    52 1   
    12     4    12 1   
    13     4    53 1   
    14     4    54 1   
    15     5     6 1   
    16     5    13 1   
    17     5    55 1   
    18     5    56 1   
    19     6     7 1   
    20     6    10 1   
    21     6    57 1   
    22     7    11 1   
    23     7    58 1   
    24     7    59 1   
    25     8    16 1   
    26     9    34 2   
    27    10    60 1   
    28    11    61 1   
    29    16    17 1   
    30    16   127 2   
    31    17    18 1   
    32    17    62 1   
    33    17    63 1   
    34    18    19 1   
    35    18    64 1   
    36    18    65 1   
    37    19    20 1   
    38    19    66 1   
    39    19    67 1   
    40    20    21 1   
    41    20    68 1   
    42    20    69 1   
    43    21    22 1   
    44    21    70 1   
    45    21    71 1   
    46    22    23 1   
    47    22    72 1   
    48    22    73 1   
    49    23    24 1   
    50    23    74 1   
    51    23    75 1   
    52    24    25 1   
    53    24    76 1   
    54    24    77 1   
    55    25    26 1   
    56    25    78 1   
    57    25    79 1   
    58    26    27 2   
    59    26    80 1   
    60    27    28 1   
    61    27    81 1   
    62    28    29 1   
    63    28    82 1   
    64    28    83 1   
    65    29    30 1   
    66    29    84 1   
    67    29    85 1   
    68    30    31 1   
    69    30    86 1   
    70    30    87 1   
    71    31    32 1   
    72    31    88 1   
    73    31    89 1   
    74    32    33 1   
    75    32    90 1   
    76    32    91 1   
    77    33    92 1   
    78    33    93 1   
    79    33    94 1   
    80    34    35 1   
    81    34   126 1   
    82    35    36 1   
    83    35    95 1   
    84    35    96 1   
    85    36    37 1   
    86    36    97 1   
    87    36    98 1   
    88    37    38 1   
    89    37    99 1   
    90    37   100 1   
    91    38    39 1   
    92    38   101 1   
    93    38   102 1   
    94    39    40 1   
    95    39   103 1   
    96    39   104 1   
    97    40    41 1   
    98    40   105 1   
    99    40   106 1   
   100    41    42 1   
   101    41   107 1   
   102    41   108 1   
   103    42    43 1   
   104    42   109 1   
   105    42   110 1   
   106    43    44 1   
   107    43   111 1   
   108    43   112 1   
   109    44    45 1   
   110    44   113 1   
   111    44   114 1   
   112    45    46 1   
   113    45   115 1   
   114    45   116 1   
   115    46    47 1   
   116    46   117 1   
   117    46   118 1   
   118    47    48 1   
   119    47   119 1   
   120    47   120 1   
   121    48    49 1   
   122    48   121 1   
   123    48   122 1   
   124    49   123 1   
   125    49   124 1   
   126    49   125 1   
@<TRIPOS>SUBSTRUCTURE
     1 PGV         1 TEMP              0 ****  ****    0 ROOT
