@<TRIPOS>MOLECULE
PGW
  127   126     1     0     0
SMALL
No Charge or Current Charge


@<TRIPOS>ATOM
      1 CAD         -0.2470     1.4360    -3.3750 c3         1 PGW       0.152600
      2 OAE         -1.3870     0.8740    -4.0480 oh         1 PGW      -0.641000
      3 OAF         -0.8630     3.7810    -3.8250 oh         1 PGW      -0.715000
      4 P           -0.0390     5.8910    -1.3920 p5         1 PGW       1.403800
      5 C01         -0.0800     5.1080     2.8390 c3         1 PGW       0.176600
      6 O01          1.7930     5.3030     1.2730 os         1 PGW      -0.434100
      7 C02          0.7940     6.0750     1.9810 c3         1 PGW       0.124300
      8 C2           3.8190     4.9690     0.0270 c3         1 PGW      -0.133400
      9 O02          3.2400     7.0820     1.0820 o          1 PGW      -0.505000
     10 C03          0.0430     7.0780     1.0330 c3         1 PGW       0.212600
     11 C3           4.9070     4.3170     0.9120 c3         1 PGW      -0.064400
     12 C04          0.6220     3.3410    -1.8790 c3         1 PGW       0.187600
     13 C4           5.8140     3.3430     0.1290 c3         1 PGW      -0.075400
     14 O04         -2.7440     5.6060     2.1730 o          1 PGW      -0.509000
     15 C05         -0.5630     2.8390    -2.7700 c3         1 PGW       0.161300
     16 C5           6.9180     2.7070     1.0010 c3         1 PGW      -0.074400
     17 C06          9.8530    -2.6980     1.6500 c3         1 PGW      -0.042200
     18 C6           7.8270     1.7390     0.2120 c3         1 PGW      -0.075400
     19 C07         10.0450    -3.6920     0.4860 c3         1 PGW      -0.071400
     20 C7           8.9460     1.1150     1.0740 c3         1 PGW      -0.071400
     21 C08          8.9280    -4.7550     0.4060 c3         1 PGW      -0.075400
     22 C8           9.8540     0.1530     0.2800 c3         1 PGW      -0.047200
     23 C09          9.1050    -5.7320    -0.7780 c3         1 PGW      -0.073400
     24 C9          10.9530    -0.4430     1.1410 c2         1 PGW      -0.207200
     25 C10         10.9600    -1.6620     1.7090 c2         1 PGW      -0.225200
     26 C11          7.9910    -6.8000    -0.8520 c3         1 PGW      -0.075400
     27 O11         -0.7070     6.4600    -0.0380 os         1 PGW      -0.587400
     28 C12          8.1560    -7.7650    -2.0460 c3         1 PGW      -0.075400
     29 O12          0.1990     4.3610    -0.9550 os         1 PGW      -0.599400
     30 C13          7.0440    -8.8350    -2.1170 c3         1 PGW      -0.075400
     31 O13          1.2310     6.5900    -1.7360 o          1 PGW      -0.814000
     32 C14          7.2030    -9.7920    -3.3150 c3         1 PGW      -0.088100
     33 O14         -1.0290     5.9560    -2.5060 o          1 PGW      -0.814000
     34 C15         -9.1180    -4.4930    -0.0160 c3         1 PGW      -0.074400
     35 C16         -9.9960    -5.5090     0.7470 c3         1 PGW      -0.074400
     36 C17        -10.7040    -6.5170    -0.1850 c3         1 PGW      -0.074400
     37 C18        -11.5840    -7.5300     0.5800 c3         1 PGW      -0.074400
     38 C19         -2.1760     4.6250     1.7110 c          1 PGW       0.623100
     39 C20         -2.8350     3.6480     0.7370 c3         1 PGW      -0.141400
     40 C21         -3.7020     2.6080     1.4820 c3         1 PGW      -0.060400
     41 C22         -4.3840     1.5970     0.5340 c3         1 PGW      -0.083400
     42 C23         -5.2580     0.5680     1.2830 c3         1 PGW      -0.068400
     43 C24         -5.9520    -0.4390     0.3410 c3         1 PGW      -0.075400
     44 C25         -6.8300    -1.4610     1.0960 c3         1 PGW      -0.074400
     45 C26         -7.5330    -2.4680     0.1590 c3         1 PGW      -0.074400
     46 C27         -8.4110    -3.4870     0.9180 c3         1 PGW      -0.074400
     47 C28        -12.2920    -8.5400    -0.3500 c3         1 PGW      -0.075400
     48 C29        -13.8780   -10.5610    -0.5090 c3         1 PGW      -0.088100
     49 C30        -13.1720    -9.5520     0.4160 c3         1 PGW      -0.075400
     50 HAD          0.0650     0.7640    -2.5640 h1         1 PGW       0.007700
     51 HADA         0.5980     1.5240    -4.0700 h1         1 PGW       0.007700
     52 HOAE        -1.0860     0.0400    -4.4700 ho         1 PGW       0.418000
     53 HOAF        -1.0000     4.6690    -3.3640 ho         1 PGW       0.522000
     54 H01          0.6040     4.4960     3.4400 h1         1 PGW       0.051700
     55 H01A        -0.6860     5.6850     3.5510 h1         1 PGW       0.051700
     56 H02          1.3070     6.7000     2.7240 h1         1 PGW       0.048700
     57 H2           3.1960     4.1660    -0.3810 hc         1 PGW       0.077700
     58 H2A          4.3010     5.5310    -0.7810 hc         1 PGW       0.077700
     59 H03         -0.6420     7.6700     1.6540 h1         1 PGW       0.049700
     60 H03A         0.7690     7.7910     0.6220 h1         1 PGW       0.049700
     61 H3           5.5250     5.1040     1.3620 hc         1 PGW       0.050700
     62 H3A          4.4250     3.7770     1.7380 hc         1 PGW       0.050700
     63 H04          1.0170     2.4910    -1.3090 h1         1 PGW       0.024200
     64 H04A         1.4370     3.7060    -2.5190 h1         1 PGW       0.024200
     65 H4           5.1970     2.5470    -0.3080 hc         1 PGW       0.035200
     66 H4A          6.2820     3.8800    -0.7060 hc         1 PGW       0.035200
     67 H05         -1.4400     2.7240    -2.1190 h1         1 PGW       0.032700
     68 H5           7.5340     3.5020     1.4390 hc         1 PGW       0.038200
     69 H5A          6.4530     2.1650     1.8350 hc         1 PGW       0.038200
     70 H06          8.8760    -2.2110     1.5470 hc         1 PGW       0.044200
     71 H06A         9.8160    -3.2510     2.5970 hc         1 PGW       0.044200
     72 H6           7.2130     0.9380    -0.2170 hc         1 PGW       0.035700
     73 H6A          8.2810     2.2790    -0.6300 hc         1 PGW       0.035700
     74 H07         10.0800    -3.1330    -0.4580 hc         1 PGW       0.038200
     75 H07A        11.0150    -4.1920     0.5970 hc         1 PGW       0.038200
     76 H7           9.5610     1.9150     1.5050 hc         1 PGW       0.039200
     77 H7A          8.4950     0.5700     1.9130 hc         1 PGW       0.039200
     78 H08          8.9060    -5.3250     1.3430 hc         1 PGW       0.037700
     79 H08A         7.9580    -4.2520     0.3130 hc         1 PGW       0.037700
     80 H8           9.2360    -0.6360    -0.1630 hc         1 PGW       0.043700
     81 H8A         10.3030     0.6930    -0.5640 hc         1 PGW       0.043700
     82 H09          9.1210    -5.1630    -1.7150 hc         1 PGW       0.036200
     83 H09A        10.0780    -6.2330    -0.6900 hc         1 PGW       0.036200
     84 H11          7.9850    -7.3780     0.0810 hc         1 PGW       0.037200
     85 H11A         7.0170    -6.3000    -0.9250 hc         1 PGW       0.037200
     86 H12          8.1580    -7.1870    -2.9790 hc         1 PGW       0.036200
     87 H12A         9.1310    -8.2630    -1.9760 hc         1 PGW       0.036200
     88 H13          7.0450    -9.4230    -1.1910 hc         1 PGW       0.036700
     89 H13A         6.0670    -8.3420    -2.1830 hc         1 PGW       0.036700
     90 H14          7.1670    -9.2380    -4.2610 hc         1 PGW       0.030033
     91 H14A         8.1580   -10.3270    -3.2620 hc         1 PGW       0.030033
     92 H14B         6.3940   -10.5330    -3.3220 hc         1 PGW       0.030033
     93 H15         -8.3630    -5.0350    -0.5990 hc         1 PGW       0.037200
     94 H15A        -9.7420    -3.9430    -0.7310 hc         1 PGW       0.037200
     95 H16         -9.3720    -6.0580     1.4630 hc         1 PGW       0.035200
     96 H16A       -10.7500    -4.9660     1.3300 hc         1 PGW       0.035200
     97 H17        -11.3280    -5.9680    -0.9020 hc         1 PGW       0.037200
     98 H17A        -9.9500    -7.0610    -0.7670 hc         1 PGW       0.037200
     99 H18        -10.9600    -8.0780     1.2980 hc         1 PGW       0.036200
    100 H18A       -12.3390    -6.9850     1.1610 hc         1 PGW       0.036200
    101 H20         -3.4650     4.2120     0.0400 hc         1 PGW       0.084700
    102 H20A        -2.0530     3.1050     0.1960 hc         1 PGW       0.084700
    103 H21         -3.0740     2.0640     2.2000 hc         1 PGW       0.043200
    104 H21A        -4.4710     3.1320     2.0640 hc         1 PGW       0.043200
    105 H22         -5.0060     2.1420    -0.1870 hc         1 PGW       0.051200
    106 H22A        -3.6150     1.0670    -0.0430 hc         1 PGW       0.051200
    107 H23         -4.6340     0.0200     2.0000 hc         1 PGW       0.030700
    108 H23A        -6.0210     1.1010     1.8640 hc         1 PGW       0.030700
    109 H24         -6.5750     0.1090    -0.3770 hc         1 PGW       0.042700
    110 H24A        -5.1910    -0.9760    -0.2380 hc         1 PGW       0.042700
    111 H25         -6.2070    -2.0110     1.8120 hc         1 PGW       0.032700
    112 H25A        -7.5880    -0.9230     1.6790 hc         1 PGW       0.032700
    113 H26         -8.1570    -1.9180    -0.5570 hc         1 PGW       0.038700
    114 H26A        -6.7760    -3.0080    -0.4230 hc         1 PGW       0.038700
    115 H27         -9.1660    -2.9460     1.5030 hc         1 PGW       0.034700
    116 H27A        -7.7860    -4.0370     1.6330 hc         1 PGW       0.034700
    117 H28        -12.9140    -7.9930    -1.0690 hc         1 PGW       0.036700
    118 H28A       -11.5370    -9.0870    -0.9290 hc         1 PGW       0.036700
    119 H29        -13.1440   -11.1470    -1.0760 hc         1 PGW       0.030033
    120 H29A       -14.4900   -11.2550     0.0790 hc         1 PGW       0.030033
    121 H29B       -14.5330   -10.0440    -1.2210 hc         1 PGW       0.030033
    122 H30        -12.5530   -10.1010     1.1360 hc         1 PGW       0.036200
    123 H30A       -13.9310    -9.0090     0.9950 hc         1 PGW       0.036200
    124 H9          11.8150     0.2150     1.2700 ha         1 PGW       0.164000
    125 H10         11.8240    -1.9750     2.2980 ha         1 PGW       0.161000
    126 C1           2.9360     5.9210     0.8360 c          1 PGW       0.623100
    127 O03         -0.8960     4.2420     2.0210 os         1 PGW      -0.428100
@<TRIPOS>BOND
     1     1     2 1   
     2     1    15 1   
     3     1    50 1   
     4     1    51 1   
     5     2    52 1   
     6     3    15 1   
     7     3    53 1   
     8     4    27 1   
     9     4    29 1   
    10     4    31 1   
    11     4    33 1   
    12     5     7 1   
    13     5    54 1   
    14     5    55 1   
    15     5   127 1   
    16     6     7 1   
    17     6   126 1   
    18     7    10 1   
    19     7    56 1   
    20     8    11 1   
    21     8    57 1   
    22     8    58 1   
    23     8   126 1   
    24     9   126 2   
    25    10    27 1   
    26    10    59 1   
    27    10    60 1   
    28    11    13 1   
    29    11    61 1   
    30    11    62 1   
    31    12    15 1   
    32    12    29 1   
    33    12    63 1   
    34    12    64 1   
    35    13    16 1   
    36    13    65 1   
    37    13    66 1   
    38    14    38 2   
    39    15    67 1   
    40    16    18 1   
    41    16    68 1   
    42    16    69 1   
    43    17    19 1   
    44    17    25 1   
    45    17    70 1   
    46    17    71 1   
    47    18    20 1   
    48    18    72 1   
    49    18    73 1   
    50    19    21 1   
    51    19    74 1   
    52    19    75 1   
    53    20    22 1   
    54    20    76 1   
    55    20    77 1   
    56    21    23 1   
    57    21    78 1   
    58    21    79 1   
    59    22    24 1   
    60    22    80 1   
    61    22    81 1   
    62    23    26 1   
    63    23    82 1   
    64    23    83 1   
    65    24    25 2   
    66    24   124 1   
    67    25   125 1   
    68    26    28 1   
    69    26    84 1   
    70    26    85 1   
    71    28    30 1   
    72    28    86 1   
    73    28    87 1   
    74    30    32 1   
    75    30    88 1   
    76    30    89 1   
    77    32    90 1   
    78    32    91 1   
    79    32    92 1   
    80    34    35 1   
    81    34    46 1   
    82    34    93 1   
    83    34    94 1   
    84    35    36 1   
    85    35    95 1   
    86    35    96 1   
    87    36    37 1   
    88    36    97 1   
    89    36    98 1   
    90    37    47 1   
    91    37    99 1   
    92    37   100 1   
    93    38    39 1   
    94    38   127 1   
    95    39    40 1   
    96    39   101 1   
    97    39   102 1   
    98    40    41 1   
    99    40   103 1   
   100    40   104 1   
   101    41    42 1   
   102    41   105 1   
   103    41   106 1   
   104    42    43 1   
   105    42   107 1   
   106    42   108 1   
   107    43    44 1   
   108    43   109 1   
   109    43   110 1   
   110    44    45 1   
   111    44   111 1   
   112    44   112 1   
   113    45    46 1   
   114    45   113 1   
   115    45   114 1   
   116    46   115 1   
   117    46   116 1   
   118    47    49 1   
   119    47   117 1   
   120    47   118 1   
   121    48    49 1   
   122    48   119 1   
   123    48   120 1   
   124    48   121 1   
   125    49   122 1   
   126    49   123 1   
@<TRIPOS>SUBSTRUCTURE
     1 PGW         1 TEMP              0 ****  ****    0 ROOT
