@<TRIPOS>MOLECULE
PGW
  127   126     1     0     0
SMALL
bcc


@<TRIPOS>ATOM
      1 CAD         -1.4440    -0.4980    -1.9960 c3         1 PGW       0.129400
      2 OAE         -2.6520    -1.2140    -2.1080 oh         1 PGW      -0.578800
      3 OAF         -2.6510     1.5120    -1.5570 oh         1 PGW      -0.652800
      4 P           -0.5980     3.9080    -0.1450 p5         1 PGW       1.403800
      5 C01         -0.1560     3.5810     4.1460 c3         1 PGW       0.153400
      6 O01          1.4320     3.4990     2.3920 os         1 PGW      -0.410900
      7 C02          0.5960     4.4010     3.1160 c3         1 PGW       0.101100
      8 C2           3.2210     2.8640     1.0320 c3         1 PGW      -0.133400
      9 O02          2.9460     5.0810     1.9360 o          1 PGW      -0.554000
     10 C03         -0.2740     5.2130     2.1690 c3         1 PGW       0.189400
     11 C3           4.6100     3.2320     0.5370 c3         1 PGW      -0.064400
     12 C04         -0.3080     1.3830    -0.8560 c3         1 PGW       0.164400
     13 C4           5.2860     2.0600    -0.1630 c3         1 PGW      -0.075400
     14 O04         -2.8600     3.6920     3.8290 o          1 PGW      -0.558000
     15 C05         -1.6450     0.6740    -1.0520 c3         1 PGW       0.138100
     16 C5           6.6940     2.3830    -0.6480 c3         1 PGW      -0.074400
     17 C06         12.0810    -0.9650    -1.1130 c3         1 PGW      -0.042200
     18 C6           7.3800     1.1950    -1.3090 c3         1 PGW      -0.075400
     19 C07         12.5820    -2.3250    -1.6020 c3         1 PGW      -0.071400
     20 C7           8.8170     1.4840    -1.7270 c3         1 PGW      -0.071400
     21 C08         12.6230    -3.3740    -0.4980 c3         1 PGW      -0.075400
     22 C8           9.4970     0.2780    -2.3780 c3         1 PGW      -0.047200
     23 C09         13.1280    -4.7290    -0.9770 c3         1 PGW      -0.073400
     24 C9          10.9150     0.5630    -2.7630 c2         1 PGW      -0.157200
     25 C10         12.0150     0.0470    -2.2140 c2         1 PGW      -0.175200
     26 C11         13.1180    -5.7950     0.1120 c3         1 PGW      -0.075400
     27 O11         -1.0810     4.4190     1.3260 os         1 PGW      -0.564200
     28 C12         13.6270    -7.1490    -0.3640 c3         1 PGW      -0.075400
     29 O12         -0.3510     2.3280     0.2040 os         1 PGW      -0.576200
     30 C13         13.5990    -8.2210     0.7180 c3         1 PGW      -0.075400
     31 O13          0.6750     4.5740    -0.5590 o          1 PGW      -0.814000
     32 C14         14.1120    -9.5690     0.2310 c3         1 PGW      -0.088100
     33 O14         -1.8130     3.9860    -1.0420 o          1 PGW      -0.814000
     34 C15        -11.1160    -3.4270    -0.4790 c3         1 PGW      -0.074400
     35 C16        -12.5240    -3.8410    -0.0690 c3         1 PGW      -0.074400
     36 C17        -13.2580    -4.6500    -1.1310 c3         1 PGW      -0.074400
     37 C18        -14.6530    -5.0840    -0.6970 c3         1 PGW      -0.074400
     38 C19         -2.2550     2.7530     3.3770 c          1 PGW       0.672100
     39 C20         -2.8570     1.6550     2.5490 c3         1 PGW      -0.141400
     40 C21         -4.3690     1.5530     2.6390 c3         1 PGW      -0.060400
     41 C22         -4.9040     0.4690     1.7100 c3         1 PGW      -0.083400
     42 C23         -6.4110     0.2850     1.8190 c3         1 PGW      -0.068400
     43 C24         -6.9580    -0.8000     0.9000 c3         1 PGW      -0.075400
     44 C25         -8.4380    -1.0790     1.1280 c3         1 PGW      -0.074400
     45 C26         -9.0240    -2.1150     0.1760 c3         1 PGW      -0.074400
     46 C27        -10.4600    -2.4880     0.5250 c3         1 PGW      -0.074400
     47 C28        -15.4200    -5.8250    -1.7840 c3         1 PGW      -0.075400
     48 C29        -17.5760    -6.9930    -2.4460 c3         1 PGW      -0.088100
     49 C30        -16.8130    -6.2640    -1.3480 c3         1 PGW      -0.075400
     50 HAD         -0.6390    -1.1310    -1.5990 h1         1 PGW       0.007700
     51 HADA        -1.1060    -0.1210    -2.9720 h1         1 PGW       0.007700
     52 HOAE        -2.4980    -1.9550    -2.7020 ho         1 PGW       0.379000
     53 HOAF        -2.4270     2.4500    -1.3580 ho         1 PGW       0.483000
     54 H01          0.5570     3.0750     4.7970 h1         1 PGW       0.051700
     55 H01A        -0.7560     4.2510     4.7630 h1         1 PGW       0.051700
     56 H02          1.2000     5.1150     3.6860 h1         1 PGW       0.048700
     57 H2           3.2580     1.9620     1.6500 hc         1 PGW       0.077700
     58 H2A          2.5670     2.6200     0.1890 hc         1 PGW       0.077700
     59 H03         -0.9420     5.8310     2.7730 h1         1 PGW       0.049700
     60 H03A         0.3560     5.8890     1.5880 h1         1 PGW       0.049700
     61 H3           4.5480     4.0820    -0.1480 hc         1 PGW       0.050700
     62 H3A          5.2310     3.5570     1.3780 hc         1 PGW       0.050700
     63 H04          0.4520     0.6440    -0.5900 h1         1 PGW       0.024200
     64 H04A         0.0150     1.8410    -1.8000 h1         1 PGW       0.024200
     65 H4           5.3300     1.2080     0.5230 hc         1 PGW       0.035200
     66 H4A          4.6740     1.7360    -1.0120 hc         1 PGW       0.035200
     67 H05         -1.9410     0.2650    -0.0710 h1         1 PGW       0.032700
     68 H5           6.6550     3.2210    -1.3510 hc         1 PGW       0.038200
     69 H5A          7.2980     2.7240     0.2010 hc         1 PGW       0.038200
     70 H06         11.1050    -1.0870    -0.6380 hc         1 PGW       0.044200
     71 H06A        12.7560    -0.6010    -0.3300 hc         1 PGW       0.044200
     72 H6           7.3750     0.3450    -0.6180 hc         1 PGW       0.035700
     73 H6A          6.8010     0.8780    -2.1840 hc         1 PGW       0.035700
     74 H07         11.9320    -2.6730    -2.4120 hc         1 PGW       0.038200
     75 H07A        13.5790    -2.2110    -2.0390 hc         1 PGW       0.038200
     76 H7           8.8370     2.3320    -2.4190 hc         1 PGW       0.039200
     77 H7A          9.3950     1.7900    -0.8490 hc         1 PGW       0.039200
     78 H08         13.2560    -3.0180     0.3230 hc         1 PGW       0.037700
     79 H08A        11.6180    -3.4890    -0.0770 hc         1 PGW       0.037700
     80 H8           9.4410    -0.5780    -1.7010 hc         1 PGW       0.043700
     81 H8A          8.9320    -0.0040    -3.2730 hc         1 PGW       0.043700
     82 H09         12.5150    -5.0680    -1.8190 hc         1 PGW       0.036200
     83 H09A        14.1450    -4.6200    -1.3690 hc         1 PGW       0.036200
     84 H11         13.7250    -5.4560     0.9600 hc         1 PGW       0.037200
     85 H11A        12.0980    -5.9060     0.4980 hc         1 PGW       0.037200
     86 H12         13.0280    -7.4820    -1.2190 hc         1 PGW       0.036200
     87 H12A        14.6510    -7.0410    -0.7390 hc         1 PGW       0.036200
     88 H13         14.1950    -7.8880     1.5730 hc         1 PGW       0.036700
     89 H13A        12.5750    -8.3330     1.0890 hc         1 PGW       0.036700
     90 H14         13.5180    -9.9360    -0.6080 hc         1 PGW       0.030033
     91 H14A        15.1480    -9.5000    -0.1060 hc         1 PGW       0.030033
     92 H14B        14.0710   -10.3230     1.0180 hc         1 PGW       0.030033
     93 H15        -10.4960    -4.3210    -0.6080 hc         1 PGW       0.037200
     94 H15A       -11.1500    -2.9390    -1.4600 hc         1 PGW       0.037200
     95 H16        -12.4750    -4.4160     0.8620 hc         1 PGW       0.035200
     96 H16A       -13.1090    -2.9430     0.1620 hc         1 PGW       0.035200
     97 H17        -13.3320    -4.0540    -2.0470 hc         1 PGW       0.037200
     98 H17A       -12.6680    -5.5350    -1.3940 hc         1 PGW       0.037200
     99 H18        -14.5750    -5.7200     0.1920 hc         1 PGW       0.036200
    100 H18A       -15.2250    -4.2020    -0.3880 hc         1 PGW       0.036200
    101 H20         -2.5580     1.8490     1.5150 hc         1 PGW       0.084700
    102 H20A        -2.3880     0.7030     2.8120 hc         1 PGW       0.084700
    103 H21         -4.6690     1.3340     3.6670 hc         1 PGW       0.043200
    104 H21A        -4.8260     2.5110     2.3800 hc         1 PGW       0.043200
    105 H22         -4.6250     0.7070     0.6770 hc         1 PGW       0.051200
    106 H22A        -4.4110    -0.4820     1.9420 hc         1 PGW       0.051200
    107 H23         -6.6670     0.0410     2.8560 hc         1 PGW       0.030700
    108 H23A        -6.9130     1.2340     1.5990 hc         1 PGW       0.030700
    109 H24         -6.7890    -0.5150    -0.1440 hc         1 PGW       0.042700
    110 H24A        -6.3920    -1.7250     1.0550 hc         1 PGW       0.042700
    111 H25         -8.5810    -1.4150     2.1610 hc         1 PGW       0.032700
    112 H25A        -9.0060    -0.1460     1.0350 hc         1 PGW       0.032700
    113 H26         -8.9820    -1.7310    -0.8500 hc         1 PGW       0.038700
    114 H26A        -8.4020    -3.0160     0.1870 hc         1 PGW       0.038700
    115 H27        -11.0630    -1.5760     0.6020 hc         1 PGW       0.034700
    116 H27A       -10.4780    -2.9450     1.5200 hc         1 PGW       0.034700
    117 H28        -15.5030    -5.1840    -2.6680 hc         1 PGW       0.036700
    118 H28A       -14.8470    -6.7040    -2.1020 hc         1 PGW       0.036700
    119 H29        -17.0480    -7.8960    -2.7580 hc         1 PGW       0.030033
    120 H29A       -18.5710    -7.2900    -2.1140 hc         1 PGW       0.030033
    121 H29B       -17.6960    -6.3620    -3.3290 hc         1 PGW       0.030033
    122 H30        -16.7290    -6.9120    -0.4700 hc         1 PGW       0.036200
    123 H30A       -17.3820    -5.3870    -1.0240 hc         1 PGW       0.036200
    124 H9          11.0410     1.2870    -3.5640 ha         1 PGW       0.114000
    125 H10         12.9760     0.3660    -2.6110 ha         1 PGW       0.111000
    126 C1           2.5420     3.9520     1.8150 c          1 PGW       0.672100
    127 O03         -0.9480     2.5580     3.5530 os         1 PGW      -0.404900
@<TRIPOS>BOND
     1     1     2 1   
     2     1    15 1   
     3     1    50 1   
     4     1    51 1   
     5     2    52 1   
     6     3    15 1   
     7     3    53 1   
     8     4    27 1   
     9     4    29 1   
    10     4    31 1   
    11     4    33 1   
    12     5     7 1   
    13     5    54 1   
    14     5    55 1   
    15     5   127 1   
    16     6     7 1   
    17     6   126 1   
    18     7    10 1   
    19     7    56 1   
    20     8    11 1   
    21     8    57 1   
    22     8    58 1   
    23     8   126 1   
    24     9   126 2   
    25    10    27 1   
    26    10    59 1   
    27    10    60 1   
    28    11    13 1   
    29    11    61 1   
    30    11    62 1   
    31    12    15 1   
    32    12    29 1   
    33    12    63 1   
    34    12    64 1   
    35    13    16 1   
    36    13    65 1   
    37    13    66 1   
    38    14    38 2   
    39    15    67 1   
    40    16    18 1   
    41    16    68 1   
    42    16    69 1   
    43    17    19 1   
    44    17    25 1   
    45    17    70 1   
    46    17    71 1   
    47    18    20 1   
    48    18    72 1   
    49    18    73 1   
    50    19    21 1   
    51    19    74 1   
    52    19    75 1   
    53    20    22 1   
    54    20    76 1   
    55    20    77 1   
    56    21    23 1   
    57    21    78 1   
    58    21    79 1   
    59    22    24 1   
    60    22    80 1   
    61    22    81 1   
    62    23    26 1   
    63    23    82 1   
    64    23    83 1   
    65    24    25 2   
    66    24   124 1   
    67    25   125 1   
    68    26    28 1   
    69    26    84 1   
    70    26    85 1   
    71    28    30 1   
    72    28    86 1   
    73    28    87 1   
    74    30    32 1   
    75    30    88 1   
    76    30    89 1   
    77    32    90 1   
    78    32    91 1   
    79    32    92 1   
    80    34    35 1   
    81    34    46 1   
    82    34    93 1   
    83    34    94 1   
    84    35    36 1   
    85    35    95 1   
    86    35    96 1   
    87    36    37 1   
    88    36    97 1   
    89    36    98 1   
    90    37    47 1   
    91    37    99 1   
    92    37   100 1   
    93    38    39 1   
    94    38   127 1   
    95    39    40 1   
    96    39   101 1   
    97    39   102 1   
    98    40    41 1   
    99    40   103 1   
   100    40   104 1   
   101    41    42 1   
   102    41   105 1   
   103    41   106 1   
   104    42    43 1   
   105    42   107 1   
   106    42   108 1   
   107    43    44 1   
   108    43   109 1   
   109    43   110 1   
   110    44    45 1   
   111    44   111 1   
   112    44   112 1   
   113    45    46 1   
   114    45   113 1   
   115    45   114 1   
   116    46   115 1   
   117    46   116 1   
   118    47    49 1   
   119    47   117 1   
   120    47   118 1   
   121    48    49 1   
   122    48   119 1   
   123    48   120 1   
   124    48   121 1   
   125    49   122 1   
   126    49   123 1   
@<TRIPOS>SUBSTRUCTURE
     1 PGW         1 TEMP              0 ****  ****    0 ROOT
