@<TRIPOS>MOLECULE
PGX
   57    58     1     0     0
SMALL
abcg2


@<TRIPOS>ATOM
      1 C1           4.0210     0.0120    -4.8040 c          1 PGX       0.717000
      2 C2           2.8470     0.6860    -4.0740 c3         1 PGX      -0.205400
      3 C3           1.4560     0.2610    -4.5130 c3         1 PGX      -0.049400
      4 C4           0.3540     0.9780    -3.7300 c3         1 PGX      -0.062200
      5 C5          -1.0160     0.6040    -4.2030 c2         1 PGX      -0.177200
      6 C6          -1.9170    -0.1270    -3.5480 c2         1 PGX      -0.260200
      7 C7          -1.7610    -0.7060    -2.1740 c3         1 PGX      -0.023200
      8 C8          -2.4030     0.1580    -1.0920 c5         1 PGX      -0.075700
      9 C9          -3.9080     0.4080    -1.2320 c5         1 PGX       0.118300
     10 C10         -4.3000     0.8810     0.1600 c5         1 PGX      -0.132400
     11 C11         -3.8000    -0.4230     0.7610 c5         1 PGX       0.122300
     12 C12         -2.3230    -0.4750     0.3370 c5         1 PGX      -0.063500
     13 C13         -1.4060     0.2680     1.2520 c2         1 PGX      -0.186200
     14 C14         -0.3290    -0.2770     1.8080 c2         1 PGX      -0.225200
     15 C15          0.6570     0.3930     2.7190 c3         1 PGX       0.177500
     16 C16          0.8170    -0.4120     4.0100 c3         1 PGX      -0.101400
     17 C17          1.8860     0.0850     4.9780 c3         1 PGX      -0.072400
     18 C18          2.1030    -0.8840     6.1350 c3         1 PGX      -0.077400
     19 C19          3.1470    -0.4010     7.1340 c3         1 PGX      -0.075400
     20 C20          3.3440    -1.3680     8.2930 c3         1 PGX      -0.088100
     21 O1           3.7550    -0.7920    -5.7200 o          1 PGX      -0.742500
     22 O2           5.1640     0.3370    -4.4160 o          1 PGX      -0.742500
     23 O3          -4.5820    -0.8430    -1.3330 os         1 PGX      -0.230000
     24 O4          -4.5090    -1.3990    -0.0000 os         1 PGX      -0.243000
     25 O5           0.2110     1.7230     2.9460 os         1 PGX      -0.242000
     26 O6           1.3160     2.5750     3.1250 oh         1 PGX      -0.438000
     27 H21          2.9500     1.7720    -4.1900 hc         1 PGX       0.014700
     28 H22          2.9620     0.5090    -2.9980 hc         1 PGX       0.014700
     29 H31          1.3360    -0.8180    -4.3830 hc         1 PGX       0.041700
     30 H32          1.3270     0.4530    -5.5810 hc         1 PGX       0.041700
     31 H41          0.4840     2.0600    -3.8430 hc         1 PGX       0.033700
     32 H42          0.4700     0.7690    -2.6630 hc         1 PGX       0.033700
     33 H51         -1.2760     0.9560    -5.1980 ha         1 PGX       0.159000
     34 H61         -2.8700    -0.3140    -4.0340 ha         1 PGX       0.156000
     35 H71         -0.7060    -0.8320    -1.9210 hc         1 PGX       0.055200
     36 H72         -2.2010    -1.7060    -2.1480 hc         1 PGX       0.055200
     37 H81         -1.9020     1.1320    -1.0960 hc         1 PGX       0.066700
     38 H91         -4.2240     1.0140    -2.0820 h1         1 PGX       0.102700
     39 H101        -5.3670     1.0570     0.2950 hc         1 PGX       0.069200
     40 H102        -3.7410     1.7560     0.4870 hc         1 PGX       0.069200
     41 H111        -4.0110    -0.6220     1.8120 h1         1 PGX       0.094700
     42 H121        -2.0000    -1.5190     0.2760 hc         1 PGX       0.076700
     43 H131        -1.6450     1.3110     1.4350 ha         1 PGX       0.182000
     44 H141        -0.1040    -1.3220     1.6080 ha         1 PGX       0.178000
     45 H151         1.6270     0.4250     2.2020 h1         1 PGX       0.083700
     46 H161         1.0620    -1.4380     3.7190 hc         1 PGX       0.048700
     47 H162        -0.1510    -0.4640     4.5200 hc         1 PGX       0.048700
     48 H171         1.6060     1.0560     5.3970 hc         1 PGX       0.038700
     49 H172         2.8300     0.2350     4.4450 hc         1 PGX       0.038700
     50 H181         2.4040    -1.8610     5.7390 hc         1 PGX       0.038200
     51 H182         1.1530    -1.0470     6.6550 hc         1 PGX       0.038200
     52 H191         2.8500     0.5790     7.5220 hc         1 PGX       0.037200
     53 H192         4.0990    -0.2450     6.6160 hc         1 PGX       0.037200
     54 H201         4.0800    -0.9960     9.0070 hc         1 PGX       0.030033
     55 H202         2.4090    -1.5260     8.8340 hc         1 PGX       0.030033
     56 H203         3.6880    -2.3430     7.9410 hc         1 PGX       0.030033
     57 HO61         1.3270     2.7150     4.0820 ho         1 PGX       0.435000
@<TRIPOS>BOND
     1     1     2 1   
     2     1    21 1   
     3     1    22 1   
     4     2     3 1   
     5     2    27 1   
     6     2    28 1   
     7     3     4 1   
     8     3    29 1   
     9     3    30 1   
    10     4     5 1   
    11     4    31 1   
    12     4    32 1   
    13     5     6 2   
    14     5    33 1   
    15     6     7 1   
    16     6    34 1   
    17     7     8 1   
    18     7    35 1   
    19     7    36 1   
    20     8     9 1   
    21     8    12 1   
    22     8    37 1   
    23     9    10 1   
    24     9    23 1   
    25     9    38 1   
    26    10    11 1   
    27    10    39 1   
    28    10    40 1   
    29    11    12 1   
    30    11    24 1   
    31    11    41 1   
    32    12    13 1   
    33    12    42 1   
    34    13    14 2   
    35    13    43 1   
    36    14    15 1   
    37    14    44 1   
    38    15    16 1   
    39    15    25 1   
    40    15    45 1   
    41    16    17 1   
    42    16    46 1   
    43    16    47 1   
    44    17    18 1   
    45    17    48 1   
    46    17    49 1   
    47    18    19 1   
    48    18    50 1   
    49    18    51 1   
    50    19    20 1   
    51    19    52 1   
    52    19    53 1   
    53    20    54 1   
    54    20    55 1   
    55    20    56 1   
    56    23    24 1   
    57    25    26 1   
    58    26    57 1   
@<TRIPOS>SUBSTRUCTURE
     1 PGX         1 TEMP              0 ****  ****    0 ROOT
