@<TRIPOS>MOLECULE
PGX
   57    58     1     0     0
SMALL
No Charge or Current Charge


@<TRIPOS>ATOM
      1 C1           3.9790    -0.1400    -3.4990 c          1 PGX       0.717000
      2 C2           2.8450     0.7120    -2.9020 c3         1 PGX      -0.205400
      3 C3           1.5240     0.4500    -3.6670 c3         1 PGX      -0.049400
      4 C4           0.3370     1.2800    -3.1340 c3         1 PGX      -0.062200
      5 C5          -0.9520     0.9840    -3.8790 c2         1 PGX      -0.177200
      6 C6          -1.9240     0.1380    -3.4950 c2         1 PGX      -0.260200
      7 C7          -1.9200    -0.7340    -2.2530 c3         1 PGX      -0.023200
      8 C8          -2.5470    -0.0400    -1.0190 c5         1 PGX      -0.075700
      9 C9          -4.0790     0.2640    -1.1140 c5         1 PGX       0.118300
     10 C10         -4.3980     0.6220     0.3450 c5         1 PGX      -0.132400
     11 C11         -3.9430    -0.7610     0.8400 c5         1 PGX       0.122300
     12 C12         -2.4710    -0.8670     0.3140 c5         1 PGX      -0.063500
     13 C13         -1.5060    -0.1820     1.2820 c2         1 PGX      -0.186200
     14 C14         -0.1830    -0.3710     1.1300 c2         1 PGX      -0.225200
     15 C15          0.9090     0.2360     1.9910 c3         1 PGX       0.177500
     16 C16          0.8520    -0.3110     3.4430 c3         1 PGX      -0.101400
     17 C17          2.0680     0.0420     4.3330 c3         1 PGX      -0.072400
     18 C18          2.0190    -0.6450     5.7150 c3         1 PGX      -0.077400
     19 C19          3.2280    -0.2920     6.6090 c3         1 PGX      -0.075400
     20 C20          3.1790    -0.9780     7.9880 c3         1 PGX      -0.088100
     21 O1           4.6270     0.3270    -4.4230 o          1 PGX      -0.742500
     22 O2           4.1510    -1.2650    -3.0540 o          1 PGX      -0.742500
     23 O3          -4.7770    -0.9910    -1.3120 os         1 PGX      -0.230000
     24 O4          -4.7210    -1.6630     0.0220 os         1 PGX      -0.243000
     25 O5           0.6940     1.6650     1.9980 os         1 PGX      -0.242000
     26 O6           1.9780     2.3820     2.0970 oh         1 PGX      -0.438000
     27 H21          3.0590     1.7800    -3.0300 hc         1 PGX       0.014700
     28 H22          2.6520     0.4220    -1.8620 hc         1 PGX       0.014700
     29 H31          1.2730    -0.6160    -3.5990 hc         1 PGX       0.041700
     30 H32          1.6690     0.6760    -4.7310 hc         1 PGX       0.041700
     31 H41          0.5730     2.3480    -3.2180 hc         1 PGX       0.033700
     32 H42          0.2180     1.0810    -2.0620 hc         1 PGX       0.033700
     33 H51         -1.0650     1.5510    -4.8060 ha         1 PGX       0.159000
     34 H61         -2.8130     0.0190    -4.1170 ha         1 PGX       0.156000
     35 H71         -0.8910    -1.0250    -2.0110 hc         1 PGX       0.055200
     36 H72         -2.4400    -1.6770    -2.4630 hc         1 PGX       0.055200
     37 H81         -2.0060     0.9080    -0.9090 hc         1 PGX       0.066700
     38 H91         -4.3570     1.0120    -1.8700 h1         1 PGX       0.102700
     39 H101        -5.4620     0.8150     0.5200 hc         1 PGX       0.069200
     40 H102        -3.8140     1.4610     0.7410 hc         1 PGX       0.069200
     41 H111        -4.0760    -0.9690     1.9110 h1         1 PGX       0.094700
     42 H121        -2.1860    -1.9130     0.1460 hc         1 PGX       0.076700
     43 H131        -1.8760     0.4590     2.0860 ha         1 PGX       0.182000
     44 H141         0.1980    -1.0050     0.3280 ha         1 PGX       0.178000
     45 H151         1.8810    -0.0120     1.5420 h1         1 PGX       0.083700
     46 H161         0.7740    -1.4030     3.3880 hc         1 PGX       0.048700
     47 H162        -0.0680     0.0400     3.9270 hc         1 PGX       0.048700
     48 H171         2.1100     1.1270     4.4840 hc         1 PGX       0.038700
     49 H172         2.9910    -0.2510     3.8170 hc         1 PGX       0.038700
     50 H181         1.9800    -1.7330     5.5770 hc         1 PGX       0.038200
     51 H182         1.0940    -0.3540     6.2290 hc         1 PGX       0.038200
     52 H191         3.2690     0.7950     6.7530 hc         1 PGX       0.037200
     53 H192         4.1540    -0.5830     6.0990 hc         1 PGX       0.037200
     54 H201         4.0550    -0.6980     8.5850 hc         1 PGX       0.030033
     55 H202         2.2790    -0.6790     8.5390 hc         1 PGX       0.030033
     56 H203         3.1730    -2.0690     7.8790 hc         1 PGX       0.030033
     57 HO61         1.9770     2.6390     3.0450 ho         1 PGX       0.435000
@<TRIPOS>BOND
     1     1     2 1   
     2     1    21 1   
     3     1    22 1   
     4     2     3 1   
     5     2    27 1   
     6     2    28 1   
     7     3     4 1   
     8     3    29 1   
     9     3    30 1   
    10     4     5 1   
    11     4    31 1   
    12     4    32 1   
    13     5     6 2   
    14     5    33 1   
    15     6     7 1   
    16     6    34 1   
    17     7     8 1   
    18     7    35 1   
    19     7    36 1   
    20     8     9 1   
    21     8    12 1   
    22     8    37 1   
    23     9    10 1   
    24     9    23 1   
    25     9    38 1   
    26    10    11 1   
    27    10    39 1   
    28    10    40 1   
    29    11    12 1   
    30    11    24 1   
    31    11    41 1   
    32    12    13 1   
    33    12    42 1   
    34    13    14 2   
    35    13    43 1   
    36    14    15 1   
    37    14    44 1   
    38    15    16 1   
    39    15    25 1   
    40    15    45 1   
    41    16    17 1   
    42    16    46 1   
    43    16    47 1   
    44    17    18 1   
    45    17    48 1   
    46    17    49 1   
    47    18    19 1   
    48    18    50 1   
    49    18    51 1   
    50    19    20 1   
    51    19    52 1   
    52    19    53 1   
    53    20    54 1   
    54    20    55 1   
    55    20    56 1   
    56    23    24 1   
    57    25    26 1   
    58    26    57 1   
@<TRIPOS>SUBSTRUCTURE
     1 PGX         1 TEMP              0 ****  ****    0 ROOT
