@<TRIPOS>MOLECULE
PGY
   19    19     1     0     0
SMALL
bcc


@<TRIPOS>ATOM
      1 N            1.3520     1.2870    -1.4630 n8         1 PGY      -0.887800
      2 CA           0.0190     0.9680    -0.9820 c3         1 PGY       0.038800
      3 CB           0.0450     0.4550     0.4420 ca         1 PGY      -0.007300
      4 CG1         -1.1320     0.4120     1.1920 ca         1 PGY      -0.121000
      5 CG2          1.2170    -0.0140     1.0290 ca         1 PGY      -0.121000
      6 CD1         -1.1370    -0.0860     2.4860 ca         1 PGY      -0.146500
      7 CD2          1.2130    -0.5220     2.3240 ca         1 PGY      -0.146500
      8 CE           0.0380    -0.5600     3.0600 ca         1 PGY      -0.167000
      9 C           -0.7400    -0.0910    -1.8400 c          1 PGY       0.910600
     10 O           -0.0340    -0.9140    -2.4530 o          1 PGY      -0.827300
     11 OXT         -1.9840    -0.0390    -1.8150 o          1 PGY      -0.827300
     12 H            1.2590     1.8550    -2.2960 hn         1 PGY       0.331300
     13 H2           1.7750     0.4250    -1.7890 hn         1 PGY       0.331300
     14 HA          -0.5720     1.8890    -0.9900 h1         1 PGY       0.048700
     15 HG1         -2.0540     0.7730     0.7550 ha         1 PGY       0.140000
     16 HG2          2.1480     0.0280     0.4800 ha         1 PGY       0.140000
     17 HD1         -2.0610    -0.1050     3.0510 ha         1 PGY       0.104500
     18 HD2          2.1370    -0.8820     2.7590 ha         1 PGY       0.104500
     19 HE           0.0350    -0.9520     4.0690 ha         1 PGY       0.102000
@<TRIPOS>BOND
     1     1     2 1   
     2     1    12 1   
     3     1    13 1   
     4     2     3 1   
     5     2     9 1   
     6     2    14 1   
     7     3     4 ar  
     8     3     5 ar  
     9     4     6 ar  
    10     4    15 1   
    11     5     7 ar  
    12     5    16 1   
    13     6     8 ar  
    14     6    17 1   
    15     7     8 ar  
    16     7    18 1   
    17     8    19 1   
    18     9    10 1   
    19     9    11 1   
@<TRIPOS>SUBSTRUCTURE
     1 PGY         1 TEMP              0 ****  ****    0 ROOT
