@<TRIPOS>MOLECULE
PGY
   19    19     1     0     0
SMALL
No Charge or Current Charge


@<TRIPOS>ATOM
      1 N            0.9840     1.8210    -1.3280 n8         1 PGY      -0.887800
      2 CA          -0.1540     0.8700    -1.0160 c3         1 PGY       0.038800
      3 CB          -0.0620     0.3770     0.4310 ca         1 PGY      -0.007300
      4 CG1         -1.0480     0.7430     1.3700 ca         1 PGY      -0.121000
      5 CG2          1.0050    -0.4500     0.8450 ca         1 PGY      -0.121000
      6 CD1         -0.9720     0.2880     2.6990 ca         1 PGY      -0.146500
      7 CD2          1.0800    -0.9050     2.1730 ca         1 PGY      -0.146500
      8 CE           0.0920    -0.5360     3.1000 ca         1 PGY      -0.167000
      9 C           -0.3780    -0.3600    -1.9980 c          1 PGY       0.910600
     10 O            0.6000    -0.8920    -2.5180 o          1 PGY      -0.827300
     11 OXT         -1.5260    -0.7140    -2.2470 o          1 PGY      -0.827300
     12 H            0.8940     2.1430    -2.2980 hn         1 PGY       0.331300
     13 H2           1.8610     1.2900    -1.3250 hn         1 PGY       0.331300
     14 HA          -1.0700     1.4690    -1.1020 h1         1 PGY       0.048700
     15 HG1         -1.8770     1.3810     1.0700 ha         1 PGY       0.140000
     16 HG2          1.7760    -0.7410     0.1340 ha         1 PGY       0.140000
     17 HD1         -1.7380     0.5750     3.4160 ha         1 PGY       0.104500
     18 HD2          1.9060    -1.5420     2.4830 ha         1 PGY       0.104500
     19 HE           0.1510    -0.8880     4.1280 ha         1 PGY       0.102000
@<TRIPOS>BOND
     1     1     2 1   
     2     1    12 1   
     3     1    13 1   
     4     2     3 1   
     5     2     9 1   
     6     2    14 1   
     7     3     4 ar  
     8     3     5 ar  
     9     4     6 ar  
    10     4    15 1   
    11     5     7 ar  
    12     5    16 1   
    13     6     8 ar  
    14     6    17 1   
    15     7     8 ar  
    16     7    18 1   
    17     8    19 1   
    18     9    10 1   
    19     9    11 1   
@<TRIPOS>SUBSTRUCTURE
     1 PGY         1 TEMP              0 ****  ****    0 ROOT
