@<TRIPOS>MOLECULE
PH0
   64    66     1     0     0
SMALL
abcg2


@<TRIPOS>ATOM
      1 O1           1.8940     0.9150     0.7860 o          1 PH0      -0.832000
      2 C1           4.5440     0.2620    -0.8440 c3         1 PH0      -0.030100
      3 C2           4.6920    -0.7620     0.2460 ca         1 PH0      -0.053300
      4 C3           4.5920    -0.4330     1.5940 ca         1 PH0      -0.089000
      5 C4           4.7210    -1.4060     2.5760 ca         1 PH0      -0.123500
      6 C5           4.9390    -2.7320     2.2260 ca         1 PH0      -0.129000
      7 C6           5.0370    -3.0750     0.8840 ca         1 PH0      -0.123500
      8 C7           4.9170    -2.0960    -0.0920 ca         1 PH0      -0.089000
      9 C8           3.1790     0.2090    -1.5690 c3         1 PH0      -0.188500
     10 C9           0.3450     0.5790    -1.4240 c3         1 PH0      -0.432400
     11 C10         -0.9050     1.2360    -0.8180 c3         1 PH0      -0.096700
     12 C11         -2.0200     0.2060    -0.8500 c          1 PH0       0.606100
     13 C12         -3.1610    -1.4620     0.5670 c3         1 PH0      -0.028300
     14 C13         -2.4210    -2.4370     1.5000 c3         1 PH0      -0.040100
     15 C14         -1.0960    -2.8770     0.9410 ca         1 PH0      -0.061300
     16 C15          0.0670    -2.1410     1.1600 ca         1 PH0      -0.107500
     17 C16          1.2760    -2.5220     0.5940 ca         1 PH0      -0.117500
     18 C17          1.3430    -3.6600    -0.1980 ca         1 PH0      -0.141000
     19 C18          0.1940    -4.4060    -0.4250 ca         1 PH0      -0.117500
     20 C19         -1.0140    -4.0130     0.1380 ca         1 PH0      -0.107500
     21 C20         -4.5720    -1.1150     1.1120 c          1 PH0       0.715000
     22 P            1.9020     1.2340    -0.6940 p5         1 PH0       1.408000
     23 O5           2.1260     2.6790    -1.1130 o          1 PH0      -0.832000
     24 N2           3.2200     0.6580    -2.9540 n8         1 PH0      -0.972200
     25 C21         -1.2830     2.5220    -1.5600 c3         1 PH0      -0.032100
     26 C22         -2.3200     3.3260    -0.8270 ca         1 PH0      -0.065300
     27 C23         -1.9340     4.3800     0.0000 ca         1 PH0      -0.096000
     28 C24         -2.8730     5.1090     0.7180 ca         1 PH0      -0.117500
     29 C25         -4.2220     4.7900     0.6230 ca         1 PH0      -0.137000
     30 C26         -4.6190     3.7370    -0.1920 ca         1 PH0      -0.117500
     31 C27         -3.6760     3.0130    -0.9090 ca         1 PH0      -0.096000
     32 O2          -2.5190    -0.1710    -1.9070 o          1 PH0      -0.669100
     33 N1          -2.3330    -0.3070     0.3430 ns         1 PH0      -0.454900
     34 H11          4.7310     1.2680    -0.4570 hc         1 PH0       0.027200
     35 H12A         5.3220     0.0800    -1.5940 hc         1 PH0       0.027200
     36 H3           4.3950     0.5930     1.8740 ha         1 PH0       0.119500
     37 H4           4.6440    -1.1290     3.6210 ha         1 PH0       0.094500
     38 H5           5.0330    -3.4910     2.9920 ha         1 PH0       0.090000
     39 H6           5.2100    -4.1050     0.5970 ha         1 PH0       0.094500
     40 H7           5.0020    -2.3720    -1.1380 ha         1 PH0       0.119500
     41 H8           2.8370    -0.8330    -1.5630 h1         1 PH0       0.064700
     42 H91          0.3480    -0.4940    -1.2100 hc         1 PH0       0.061700
     43 H92          0.3480     0.6860    -2.5110 hc         1 PH0       0.061700
     44 H10         -0.6900     1.4910     0.2250 hc         1 PH0       0.061700
     45 H12         -3.2950    -1.9540    -0.4000 h1         1 PH0       0.064700
     46 H131        -2.2760    -1.9540     2.4730 hc         1 PH0       0.048200
     47 H132        -3.0640    -3.3000     1.6680 hc         1 PH0       0.048200
     48 H15          0.0400    -1.2490     1.7730 ha         1 PH0       0.116500
     49 H16          2.1580    -1.9150     0.7590 ha         1 PH0       0.107000
     50 H17          2.2880    -3.9610    -0.6350 ha         1 PH0       0.088000
     51 H18          0.2350    -5.2960    -1.0410 ha         1 PH0       0.107000
     52 H19         -1.9070    -4.6010    -0.0460 ha         1 PH0       0.116500
     53 HN21         3.4190     1.6500    -2.9760 hn         1 PH0       0.377500
     54 HN22         3.9820     0.2010    -3.4420 hn         1 PH0       0.377500
     55 H211        -0.3730     3.1130    -1.6770 hc         1 PH0       0.063200
     56 H212        -1.6320     2.2660    -2.5630 hc         1 PH0       0.063200
     57 H23         -0.8830     4.6320     0.0810 ha         1 PH0       0.127000
     58 H24         -2.5520     5.9280     1.3480 ha         1 PH0       0.095000
     59 H25         -4.9560     5.3560     1.1810 ha         1 PH0       0.083000
     60 H26         -5.6670     3.4770    -0.2700 ha         1 PH0       0.095000
     61 H27         -4.0000     2.1950    -1.5390 ha         1 PH0       0.127000
     62 HN1         -1.9260     0.1300     1.1540 hn         1 PH0       0.306500
     63 O3          -5.2930    -2.1020     1.3640 o          1 PH0      -0.733000
     64 O4          -4.8640     0.0850     1.2340 o          1 PH0      -0.733000
@<TRIPOS>BOND
     1     1    22 1   
     2     2     3 1   
     3     2     9 1   
     4     2    34 1   
     5     2    35 1   
     6     3     4 ar  
     7     3     8 ar  
     8     4     5 ar  
     9     4    36 1   
    10     5     6 ar  
    11     5    37 1   
    12     6     7 ar  
    13     6    38 1   
    14     7     8 ar  
    15     7    39 1   
    16     8    40 1   
    17     9    22 1   
    18     9    24 1   
    19     9    41 1   
    20    10    11 1   
    21    10    22 1   
    22    10    42 1   
    23    10    43 1   
    24    11    12 1   
    25    11    25 1   
    26    11    44 1   
    27    12    32 2   
    28    12    33 1   
    29    13    14 1   
    30    13    21 1   
    31    13    33 1   
    32    13    45 1   
    33    14    15 1   
    34    14    46 1   
    35    14    47 1   
    36    15    16 ar  
    37    15    20 ar  
    38    16    17 ar  
    39    16    48 1   
    40    17    18 ar  
    41    17    49 1   
    42    18    19 ar  
    43    18    50 1   
    44    19    20 ar  
    45    19    51 1   
    46    20    52 1   
    47    21    63 1   
    48    21    64 1   
    49    22    23 1   
    50    24    53 1   
    51    24    54 1   
    52    25    26 1   
    53    25    55 1   
    54    25    56 1   
    55    26    27 ar  
    56    26    31 ar  
    57    27    28 ar  
    58    27    57 1   
    59    28    29 ar  
    60    28    58 1   
    61    29    30 ar  
    62    29    59 1   
    63    30    31 ar  
    64    30    60 1   
    65    31    61 1   
    66    33    62 1   
@<TRIPOS>SUBSTRUCTURE
     1 PH0         1 TEMP              0 ****  ****    0 ROOT
