@<TRIPOS>MOLECULE
PH0
   64    66     1     0     0
SMALL
No Charge or Current Charge


@<TRIPOS>ATOM
      1 O1           2.2180     1.3210     0.6300 o          1 PH0      -0.832000
      2 C1           4.7700     0.2340    -0.9300 c3         1 PH0      -0.030100
      3 C2           4.8210    -0.8000     0.1930 ca         1 PH0      -0.053300
      4 C3           4.8440    -0.3980     1.5440 ca         1 PH0      -0.089000
      5 C4           4.9090    -1.3570     2.5700 ca         1 PH0      -0.123500
      6 C5           4.9580    -2.7250     2.2540 ca         1 PH0      -0.129000
      7 C6           4.9430    -3.1330     0.9100 ca         1 PH0      -0.123500
      8 C7           4.8760    -2.1750    -0.1160 ca         1 PH0      -0.089000
      9 C8           3.4230     0.2320    -1.7120 c3         1 PH0      -0.188500
     10 C9           0.5160     0.5930    -1.3720 c3         1 PH0      -0.432400
     11 C10         -0.8030     1.1980    -0.7850 c3         1 PH0      -0.096700
     12 C11         -1.9340     0.1380    -0.7250 c          1 PH0       0.606100
     13 C12         -3.2990    -1.2620     0.8990 c3         1 PH0      -0.028300
     14 C13         -2.5100    -2.3830     1.6250 c3         1 PH0      -0.040100
     15 C14         -1.1900    -2.7340     0.9410 ca         1 PH0      -0.061300
     16 C15          0.0300    -2.2690     1.4720 ca         1 PH0      -0.107500
     17 C16          1.2440    -2.5730     0.8330 ca         1 PH0      -0.117500
     18 C17          1.2480    -3.3440    -0.3410 ca         1 PH0      -0.141000
     19 C18          0.0350    -3.8110    -0.8750 ca         1 PH0      -0.117500
     20 C19         -1.1810    -3.5060    -0.2370 ca         1 PH0      -0.107500
     21 C20         -4.5180    -0.7750     1.7420 c          1 PH0       0.715000
     22 P            2.1130     1.3560    -0.8620 p5         1 PH0       1.408000
     23 O5           2.2040     2.7500    -1.4060 o          1 PH0      -0.832000
     24 N2           3.7100     0.3130    -3.2100 n8         1 PH0      -0.972200
     25 C21         -1.2800     2.4590    -1.5490 c3         1 PH0      -0.032100
     26 C22         -2.4630     3.1340    -0.8660 ca         1 PH0      -0.065300
     27 C23         -2.2540     3.9790     0.2420 ca         1 PH0      -0.096000
     28 C24         -3.3450     4.5960     0.8800 ca         1 PH0      -0.117500
     29 C25         -4.6510     4.3700     0.4140 ca         1 PH0      -0.137000
     30 C26         -4.8660     3.5280    -0.6890 ca         1 PH0      -0.117500
     31 C27         -3.7760     2.9120    -1.3280 ca         1 PH0      -0.096000
     32 O2          -2.3670    -0.4300    -1.7220 o          1 PH0      -0.669100
     33 N1          -2.4100    -0.1290     0.5420 ns         1 PH0      -0.454900
     34 H11          4.9680     1.2420    -0.5440 hc         1 PH0       0.027200
     35 H12A         5.6010     0.0210    -1.6150 hc         1 PH0       0.027200
     36 H3           4.8060     0.6590     1.7990 ha         1 PH0       0.119500
     37 H4           4.9210    -1.0390     3.6100 ha         1 PH0       0.094500
     38 H5           5.0090    -3.4660     3.0480 ha         1 PH0       0.090000
     39 H6           4.9820    -4.1920     0.6630 ha         1 PH0       0.094500
     40 H7           4.8670    -2.4990    -1.1540 ha         1 PH0       0.119500
     41 H8           2.9690    -0.7550    -1.5560 h1         1 PH0       0.064700
     42 H91          0.6110    -0.4470    -1.0450 hc         1 PH0       0.061700
     43 H92          0.4880     0.5830    -2.4660 hc         1 PH0       0.061700
     44 H10         -0.5920     1.5040     0.2480 hc         1 PH0       0.061700
     45 H12         -3.7050    -1.6870    -0.0270 h1         1 PH0       0.064700
     46 H131        -2.3150    -2.0690     2.6580 hc         1 PH0       0.048200
     47 H132        -3.1460    -3.2730     1.6980 hc         1 PH0       0.048200
     48 H15          0.0390    -1.6650     2.3760 ha         1 PH0       0.116500
     49 H16          2.1800    -2.2040     1.2460 ha         1 PH0       0.107000
     50 H17          2.1870    -3.5760    -0.8360 ha         1 PH0       0.088000
     51 H18          0.0360    -4.4050    -1.7860 ha         1 PH0       0.107000
     52 H19         -2.1160    -3.8640    -0.6610 ha         1 PH0       0.116500
     53 HN21         4.0440     1.2550    -3.4540 hn         1 PH0       0.377500
     54 HN22         4.4960    -0.3010    -3.4550 hn         1 PH0       0.377500
     55 H211        -0.4540     3.1750    -1.6270 hc         1 PH0       0.063200
     56 H212        -1.5370     2.1850    -2.5800 hc         1 PH0       0.063200
     57 H23         -1.2460     4.1570     0.6100 ha         1 PH0       0.127000
     58 H24         -3.1770     5.2470     1.7350 ha         1 PH0       0.095000
     59 H25         -5.4940     4.8470     0.9080 ha         1 PH0       0.083000
     60 H26         -5.8770     3.3510    -1.0490 ha         1 PH0       0.095000
     61 H27         -3.9530     2.2570    -2.1790 ha         1 PH0       0.127000
     62 HN1         -2.0230     0.4240     1.2970 hn         1 PH0       0.306500
     63 O3          -5.6420    -1.0120     1.3210 o          1 PH0      -0.733000
     64 O4          -4.3080    -0.1310     2.7620 o          1 PH0      -0.733000
@<TRIPOS>BOND
     1     1    22 1   
     2     2     3 1   
     3     2     9 1   
     4     2    34 1   
     5     2    35 1   
     6     3     4 ar  
     7     3     8 ar  
     8     4     5 ar  
     9     4    36 1   
    10     5     6 ar  
    11     5    37 1   
    12     6     7 ar  
    13     6    38 1   
    14     7     8 ar  
    15     7    39 1   
    16     8    40 1   
    17     9    22 1   
    18     9    24 1   
    19     9    41 1   
    20    10    11 1   
    21    10    22 1   
    22    10    42 1   
    23    10    43 1   
    24    11    12 1   
    25    11    25 1   
    26    11    44 1   
    27    12    32 2   
    28    12    33 1   
    29    13    14 1   
    30    13    21 1   
    31    13    33 1   
    32    13    45 1   
    33    14    15 1   
    34    14    46 1   
    35    14    47 1   
    36    15    16 ar  
    37    15    20 ar  
    38    16    17 ar  
    39    16    48 1   
    40    17    18 ar  
    41    17    49 1   
    42    18    19 ar  
    43    18    50 1   
    44    19    20 ar  
    45    19    51 1   
    46    20    52 1   
    47    21    63 1   
    48    21    64 1   
    49    22    23 1   
    50    24    53 1   
    51    24    54 1   
    52    25    26 1   
    53    25    55 1   
    54    25    56 1   
    55    26    27 ar  
    56    26    31 ar  
    57    27    28 ar  
    58    27    57 1   
    59    28    29 ar  
    60    28    58 1   
    61    29    30 ar  
    62    29    59 1   
    63    30    31 ar  
    64    30    60 1   
    65    31    61 1   
    66    33    62 1   
@<TRIPOS>SUBSTRUCTURE
     1 PH0         1 TEMP              0 ****  ****    0 ROOT
