@<TRIPOS>MOLECULE
PH1
  133   132     1     0     0
SMALL
No Charge or Current Charge


@<TRIPOS>ATOM
      1 O1          -7.4690    -0.4810     1.3280 os         1 PH1      -0.449000
      2 C1          -7.2770    -0.1280     2.7060 c3         1 PH1       0.162600
      3 C2          -5.9860    -0.8220     3.1910 c3         1 PH1      -0.078400
      4 C3          -5.5390    -0.4360     4.6300 c3         1 PH1      -0.056700
      5 C4          -6.5950    -0.8360     5.6950 c3         1 PH1      -0.089100
      6 C5          -4.1350    -1.0320     4.9370 c3         1 PH1      -0.072400
      7 C6          -3.4940    -0.5570     6.2630 c3         1 PH1      -0.073400
      8 C7          -2.0480    -1.0800     6.4520 c3         1 PH1      -0.073400
      9 C8          -1.3020    -0.5320     7.7020 c3         1 PH1      -0.056700
     10 C9          -1.9970    -0.9410     9.0280 c3         1 PH1      -0.087100
     11 C10          0.1940    -0.9600     7.6640 c3         1 PH1      -0.073400
     12 C11          1.0940    -0.3100     8.7440 c3         1 PH1      -0.073400
     13 C12          2.5910    -0.6700     8.5720 c3         1 PH1      -0.073400
     14 C13          3.5630     0.0560     9.5470 c3         1 PH1      -0.056700
     15 C14          3.2850    -0.3030    11.0310 c3         1 PH1      -0.087100
     16 C15          5.0380    -0.2240     9.1400 c3         1 PH1      -0.073400
     17 C16          6.1010     0.6010     9.9070 c3         1 PH1      -0.073400
     18 C17          7.5340     0.3830     9.3640 c3         1 PH1      -0.073400
     19 C18          8.6530     1.0990    10.1690 c3         1 PH1      -0.059700
     20 C19         10.0520     0.6850     9.6570 c3         1 PH1      -0.087100
     21 C20          8.5060     2.6400    10.1700 c3         1 PH1      -0.087100
     22 O31         -7.6560     0.3240    -1.4880 os         1 PH1      -0.450000
     23 C31         -7.4020    -0.1450    -2.8250 c3         1 PH1       0.163600
     24 C32         -6.1590     0.6060    -3.3510 c3         1 PH1      -0.078400
     25 C33         -5.6390     0.1190    -4.7330 c3         1 PH1      -0.056700
     26 C34         -6.6930     0.3180    -5.8550 c3         1 PH1      -0.089100
     27 C35         -4.2820     0.8010    -5.0690 c3         1 PH1      -0.072400
     28 C36         -3.5630     0.2530    -6.3260 c3         1 PH1      -0.074400
     29 C37         -2.1610     0.8790    -6.5360 c3         1 PH1      -0.073400
     30 C38         -1.3340     0.2740    -7.7070 c3         1 PH1      -0.057700
     31 C39         -2.0200     0.4860    -9.0830 c3         1 PH1      -0.087100
     32 C40          0.1190     0.8310    -7.6810 c3         1 PH1      -0.073400
     33 C41          1.1030     0.1560    -8.6680 c3         1 PH1      -0.073400
     34 C42          2.5580     0.6600    -8.5030 c3         1 PH1      -0.073400
     35 C43          3.6160    -0.0740    -9.3760 c3         1 PH1      -0.056700
     36 C44          3.3540     0.1080   -10.8950 c3         1 PH1      -0.087100
     37 C45          5.0500     0.3730    -8.9690 c3         1 PH1      -0.073400
     38 C46          6.2020    -0.4300    -9.6230 c3         1 PH1      -0.073400
     39 C47          7.5940    -0.0360    -9.0740 c3         1 PH1      -0.072400
     40 C48          8.7930    -0.7300    -9.7760 c3         1 PH1      -0.059700
     41 C49         10.1360    -0.1470    -9.2800 c3         1 PH1      -0.086600
     42 C50          8.7760    -2.2700    -9.6200 c3         1 PH1      -0.086600
     43 C51         -8.6400     0.1010     0.7200 c3         1 PH1       0.164600
     44 C52         -8.7170    -0.3460    -0.7650 c3         1 PH1       0.174300
     45 C53        -10.0750     0.0240    -1.4090 c3         1 PH1      -0.123100
     46 H11         -8.1340    -0.4590     3.3070 h1         1 PH1       0.018200
     47 H12         -7.1720     0.9600     2.8140 h1         1 PH1       0.018200
     48 H21         -5.1820    -0.5660     2.4910 hc         1 PH1       0.052700
     49 H22         -6.1220    -1.9090     3.1320 hc         1 PH1       0.052700
     50 H3          -5.4420     0.6570     4.6580 hc         1 PH1       0.044700
     51 H41         -6.7230    -1.9240     5.7280 hc         1 PH1       0.032700
     52 H42         -6.3030    -0.4930     6.6930 hc         1 PH1       0.032700
     53 H43A        -7.5690    -0.3820     5.4800 hc         1 PH1       0.032700
     54 H51         -3.4570    -0.7660     4.1160 hc         1 PH1       0.039200
     55 H52A        -4.2010    -2.1280     4.9430 hc         1 PH1       0.039200
     56 H61         -4.1100    -0.8990     7.1010 hc         1 PH1       0.038200
     57 H62         -3.4860     0.5400     6.2880 hc         1 PH1       0.038200
     58 H71         -1.4720    -0.8140     5.5560 hc         1 PH1       0.037200
     59 H72         -2.0670    -2.1770     6.4940 hc         1 PH1       0.037200
     60 H8          -1.3280     0.5640     7.6410 hc         1 PH1       0.044700
     61 H91         -2.0010    -2.0310     9.1460 hc         1 PH1       0.031700
     62 H92         -1.4900    -0.5030     9.8950 hc         1 PH1       0.031700
     63 H93         -3.0330    -0.5870     9.0610 hc         1 PH1       0.031700
     64 H101         0.6060    -0.7020     6.6800 hc         1 PH1       0.036700
     65 H102         0.2600    -2.0510     7.7510 hc         1 PH1       0.036700
     66 H111         0.7590    -0.6370     9.7330 hc         1 PH1       0.039200
     67 H112         0.9780     0.7800     8.7030 hc         1 PH1       0.039200
     68 H121         2.8820    -0.4260     7.5430 hc         1 PH1       0.036700
     69 H122         2.7130    -1.7550     8.6800 hc         1 PH1       0.036700
     70 H13          3.3930     1.1340     9.4330 hc         1 PH1       0.043700
     71 H141         3.4350    -1.3750    11.2080 hc         1 PH1       0.031367
     72 H142         3.9440     0.2530    11.7060 hc         1 PH1       0.031367
     73 H143         2.2580    -0.0490    11.3180 hc         1 PH1       0.031367
     74 H151         5.1530    -0.0100     8.0700 hc         1 PH1       0.036700
     75 H152         5.2520    -1.2930     9.2680 hc         1 PH1       0.036700
     76 H161         6.0870     0.3290    10.9690 hc         1 PH1       0.038700
     77 H162         5.8380     1.6630     9.8390 hc         1 PH1       0.038700
     78 H171         7.5750     0.7120     8.3170 hc         1 PH1       0.036700
     79 H172         7.7400    -0.6940     9.3600 hc         1 PH1       0.036700
     80 H18          8.5810     0.7620    11.2110 hc         1 PH1       0.043700
     81 H191        10.8400     1.1470    10.2630 hc         1 PH1       0.031533
     82 H192        10.1800    -0.4030     9.7120 hc         1 PH1       0.031533
     83 H193        10.1940     0.9960     8.6140 hc         1 PH1       0.031533
     84 H201         8.4970     3.0330     9.1470 hc         1 PH1       0.031533
     85 H202         7.5800     2.9500    10.6690 hc         1 PH1       0.031533
     86 H203         9.3400     3.1070    10.7080 hc         1 PH1       0.031533
     87 H311        -7.2030    -1.2250    -2.8240 h1         1 PH1       0.018700
     88 H312        -8.2580     0.0560    -3.4800 h1         1 PH1       0.018700
     89 H321        -6.3870     1.6780    -3.4040 hc         1 PH1       0.052200
     90 H322        -5.3580     0.4900    -2.6110 hc         1 PH1       0.052200
     91 H33         -5.4500    -0.9590    -4.6480 hc         1 PH1       0.044700
     92 H341        -6.9120     1.3830    -6.0000 hc         1 PH1       0.031700
     93 H342        -6.3430    -0.0940    -6.8080 hc         1 PH1       0.031700
     94 H343        -7.6310    -0.1960    -5.6170 hc         1 PH1       0.031700
     95 H351        -4.4390     1.8810    -5.1880 hc         1 PH1       0.039200
     96 H352        -3.6080     0.6780    -4.2120 hc         1 PH1       0.039200
     97 H361        -3.4620    -0.8360    -6.2390 hc         1 PH1       0.038200
     98 H362        -4.1800     0.4550    -7.2080 hc         1 PH1       0.038200
     99 H371        -2.2710     1.9590    -6.6910 hc         1 PH1       0.037200
    100 H372        -1.5920     0.7540    -5.6060 hc         1 PH1       0.037200
    101 H38         -1.2700    -0.8080    -7.5350 hc         1 PH1       0.044700
    102 H391        -2.1130     1.5540    -9.3120 hc         1 PH1       0.032033
    103 H392        -1.4530     0.0090    -9.8900 hc         1 PH1       0.032033
    104 H393        -3.0210     0.0420    -9.1020 hc         1 PH1       0.032033
    105 H401         0.0960     1.9100    -7.8790 hc         1 PH1       0.037200
    106 H402         0.5210     0.7110    -6.6670 hc         1 PH1       0.037200
    107 H411         1.0770    -0.9300    -8.5180 hc         1 PH1       0.038700
    108 H412         0.7710     0.3520    -9.6930 hc         1 PH1       0.038700
    109 H421         2.5920     1.7350    -8.7200 hc         1 PH1       0.036700
    110 H422         2.8370     0.5480    -7.4480 hc         1 PH1       0.036700
    111 H43          3.5340    -1.1460    -9.1540 hc         1 PH1       0.044700
    112 H441         3.4200     1.1650   -11.1780 hc         1 PH1       0.032033
    113 H442         4.0790    -0.4540   -11.4940 hc         1 PH1       0.032033
    114 H443         2.3630    -0.2630   -11.1760 hc         1 PH1       0.032033
    115 H451         5.1770     1.4370    -9.2020 hc         1 PH1       0.036200
    116 H452         5.1500     0.2800    -7.8800 hc         1 PH1       0.036200
    117 H461         6.0260    -1.4990    -9.4500 hc         1 PH1       0.038200
    118 H462         6.1970    -0.2700   -10.7070 hc         1 PH1       0.038200
    119 H471         7.7090     1.0510    -9.1780 hc         1 PH1       0.036700
    120 H472         7.6310    -0.2510    -7.9980 hc         1 PH1       0.036700
    121 H48          8.7240    -0.5080   -10.8480 hc         1 PH1       0.042700
    122 H491        10.9780    -0.5980    -9.8180 hc         1 PH1       0.031533
    123 H492        10.1740     0.9370    -9.4450 hc         1 PH1       0.031533
    124 H493        10.2720    -0.3360    -8.2080 hc         1 PH1       0.031533
    125 H501         8.7690    -2.5560    -8.5620 hc         1 PH1       0.031533
    126 H502         7.8950    -2.7080   -10.1040 hc         1 PH1       0.031533
    127 H503         9.6620    -2.7160   -10.0890 hc         1 PH1       0.031533
    128 H511        -9.5430    -0.2390     1.2450 h1         1 PH1       0.026700
    129 H512        -8.6070     1.1970     0.7730 h1         1 PH1       0.026700
    130 H52         -8.5900    -1.4360    -0.8050 h1         1 PH1       0.042700
    131 H531       -10.1800     1.1120    -1.5010 hc         1 PH1       0.041700
    132 H532       -10.1800    -0.4260    -2.4020 hc         1 PH1       0.041700
    133 H533       -10.9020    -0.3470    -0.7920 hc         1 PH1       0.041700
@<TRIPOS>BOND
     1     1     2 1   
     2     1    43 1   
     3     2     3 1   
     4     2    46 1   
     5     2    47 1   
     6     3     4 1   
     7     3    48 1   
     8     3    49 1   
     9     4     5 1   
    10     4     6 1   
    11     4    50 1   
    12     5    51 1   
    13     5    52 1   
    14     5    53 1   
    15     6     7 1   
    16     6    54 1   
    17     6    55 1   
    18     7     8 1   
    19     7    56 1   
    20     7    57 1   
    21     8     9 1   
    22     8    58 1   
    23     8    59 1   
    24     9    10 1   
    25     9    11 1   
    26     9    60 1   
    27    10    61 1   
    28    10    62 1   
    29    10    63 1   
    30    11    12 1   
    31    11    64 1   
    32    11    65 1   
    33    12    13 1   
    34    12    66 1   
    35    12    67 1   
    36    13    14 1   
    37    13    68 1   
    38    13    69 1   
    39    14    15 1   
    40    14    16 1   
    41    14    70 1   
    42    15    71 1   
    43    15    72 1   
    44    15    73 1   
    45    16    17 1   
    46    16    74 1   
    47    16    75 1   
    48    17    18 1   
    49    17    76 1   
    50    17    77 1   
    51    18    19 1   
    52    18    78 1   
    53    18    79 1   
    54    19    20 1   
    55    19    21 1   
    56    19    80 1   
    57    20    81 1   
    58    20    82 1   
    59    20    83 1   
    60    21    84 1   
    61    21    85 1   
    62    21    86 1   
    63    22    23 1   
    64    22    44 1   
    65    23    24 1   
    66    23    87 1   
    67    23    88 1   
    68    24    25 1   
    69    24    89 1   
    70    24    90 1   
    71    25    26 1   
    72    25    27 1   
    73    25    91 1   
    74    26    92 1   
    75    26    93 1   
    76    26    94 1   
    77    27    28 1   
    78    27    95 1   
    79    27    96 1   
    80    28    29 1   
    81    28    97 1   
    82    28    98 1   
    83    29    30 1   
    84    29    99 1   
    85    29   100 1   
    86    30    31 1   
    87    30    32 1   
    88    30   101 1   
    89    31   102 1   
    90    31   103 1   
    91    31   104 1   
    92    32    33 1   
    93    32   105 1   
    94    32   106 1   
    95    33    34 1   
    96    33   107 1   
    97    33   108 1   
    98    34    35 1   
    99    34   109 1   
   100    34   110 1   
   101    35    36 1   
   102    35    37 1   
   103    35   111 1   
   104    36   112 1   
   105    36   113 1   
   106    36   114 1   
   107    37    38 1   
   108    37   115 1   
   109    37   116 1   
   110    38    39 1   
   111    38   117 1   
   112    38   118 1   
   113    39    40 1   
   114    39   119 1   
   115    39   120 1   
   116    40    41 1   
   117    40    42 1   
   118    40   121 1   
   119    41   122 1   
   120    41   123 1   
   121    41   124 1   
   122    42   125 1   
   123    42   126 1   
   124    42   127 1   
   125    43    44 1   
   126    43   128 1   
   127    43   129 1   
   128    44    45 1   
   129    44   130 1   
   130    45   131 1   
   131    45   132 1   
   132    45   133 1   
@<TRIPOS>SUBSTRUCTURE
     1 PH1         1 TEMP              0 ****  ****    0 ROOT
