@<TRIPOS>MOLECULE
PH1
  133   132     1     0     0
SMALL
bcc


@<TRIPOS>ATOM
      1 O1          -6.6630     0.0090     1.2540 os         1 PH1      -0.402600
      2 C1          -6.5490     0.2620     2.6360 c3         1 PH1       0.139400
      3 C2          -5.2650    -0.3530     3.1600 c3         1 PH1      -0.078400
      4 C3          -5.0270    -0.0870     4.6500 c3         1 PH1      -0.056700
      5 C4          -6.0830    -0.7720     5.5150 c3         1 PH1      -0.089100
      6 C5          -3.6120    -0.5270     5.0370 c3         1 PH1      -0.072400
      7 C6          -3.2000    -0.1710     6.4610 c3         1 PH1      -0.073400
      8 C7          -1.7680    -0.5910     6.7760 c3         1 PH1      -0.073400
      9 C8          -1.2670    -0.2050     8.1710 c3         1 PH1      -0.056700
     10 C9          -2.0850    -0.8810     9.2690 c3         1 PH1      -0.087100
     11 C10          0.2230    -0.5420     8.2910 c3         1 PH1      -0.073400
     12 C11          0.8950    -0.0910     9.5830 c3         1 PH1      -0.073400
     13 C12          2.3820    -0.4320     9.6060 c3         1 PH1      -0.073400
     14 C13          3.1550     0.0950    10.8180 c3         1 PH1      -0.056700
     15 C14          2.5990    -0.4490    12.1310 c3         1 PH1      -0.087100
     16 C15          4.6440    -0.2290    10.6590 c3         1 PH1      -0.073400
     17 C16          5.5570     0.3600    11.7280 c3         1 PH1      -0.073400
     18 C17          7.0290     0.0720    11.4520 c3         1 PH1      -0.073400
     19 C18          7.9890     0.4820    12.5700 c3         1 PH1      -0.059700
     20 C19          9.4110     0.0430    12.2350 c3         1 PH1      -0.087100
     21 C20          7.9480     1.9830    12.8430 c3         1 PH1      -0.087100
     22 O31         -6.9010     0.6430    -1.4760 os         1 PH1      -0.403600
     23 C31         -6.6630    -0.0380    -2.6870 c3         1 PH1       0.140400
     24 C32         -5.4970     0.6150    -3.4050 c3         1 PH1      -0.078400
     25 C33         -5.0960    -0.1000    -4.6990 c3         1 PH1      -0.056700
     26 C34         -6.2260    -0.0920    -5.7280 c3         1 PH1      -0.089100
     27 C35         -3.8160     0.5260    -5.2630 c3         1 PH1      -0.072400
     28 C36         -3.2070    -0.2260    -6.4410 c3         1 PH1      -0.074400
     29 C37         -1.9240     0.4180    -6.9540 c3         1 PH1      -0.073400
     30 C38         -1.2070    -0.3640    -8.0590 c3         1 PH1      -0.057700
     31 C39         -2.1030    -0.5570    -9.2810 c3         1 PH1      -0.087100
     32 C40          0.1040     0.3380    -8.4260 c3         1 PH1      -0.073400
     33 C41          1.0340    -0.4620    -9.3320 c3         1 PH1      -0.073400
     34 C42          2.3090     0.3020    -9.6710 c3         1 PH1      -0.073400
     35 C43          3.3290    -0.4660   -10.5160 c3         1 PH1      -0.056700
     36 C44          2.7380    -0.9110   -11.8510 c3         1 PH1      -0.087100
     37 C45          4.5820     0.3930   -10.7120 c3         1 PH1      -0.073400
     38 C46          5.7450    -0.3020   -11.4110 c3         1 PH1      -0.073400
     39 C47          6.9890     0.5760   -11.4770 c3         1 PH1      -0.072400
     40 C48          8.1610    -0.0200   -12.2590 c3         1 PH1      -0.059700
     41 C49          9.3060     0.9850   -12.3400 c3         1 PH1      -0.086600
     42 C50          8.6490    -1.3370   -11.6620 c3         1 PH1      -0.086600
     43 C51         -7.8280     0.5650     0.7050 c3         1 PH1       0.141400
     44 C52         -7.9930     0.1350    -0.7380 c3         1 PH1       0.151100
     45 C53         -9.3300     0.6310    -1.2750 c3         1 PH1      -0.123100
     46 H11         -7.4230    -0.1480     3.1610 h1         1 PH1       0.018200
     47 H12         -6.5450     1.3450     2.8310 h1         1 PH1       0.018200
     48 H21         -4.4260     0.0520     2.5850 hc         1 PH1       0.052700
     49 H22         -5.2760    -1.4350     2.9840 hc         1 PH1       0.052700
     50 H3          -5.0940     0.9970     4.8130 hc         1 PH1       0.044700
     51 H41         -6.0290    -1.8570     5.3940 hc         1 PH1       0.032700
     52 H42         -5.9470    -0.5520     6.5740 hc         1 PH1       0.032700
     53 H43A        -7.0940    -0.4600     5.2570 hc         1 PH1       0.032700
     54 H51         -2.9000    -0.0700     4.3410 hc         1 PH1       0.039200
     55 H52A        -3.5240    -1.6110     4.8930 hc         1 PH1       0.039200
     56 H61         -3.8840    -0.6420     7.1700 hc         1 PH1       0.038200
     57 H62         -3.3040     0.9100     6.6090 hc         1 PH1       0.038200
     58 H71         -1.1000    -0.1460     6.0310 hc         1 PH1       0.037200
     59 H72         -1.6750    -1.6770     6.6550 hc         1 PH1       0.037200
     60 H8          -1.3780     0.8820     8.2790 hc         1 PH1       0.044700
     61 H91         -1.9740    -1.9680     9.2160 hc         1 PH1       0.031700
     62 H92         -1.7760    -0.5650    10.2650 hc         1 PH1       0.031700
     63 H93         -3.1480    -0.6550     9.1820 hc         1 PH1       0.031700
     64 H101         0.7520    -0.0880     7.4450 hc         1 PH1       0.036700
     65 H102         0.3490    -1.6260     8.1780 hc         1 PH1       0.036700
     66 H111         0.3990    -0.5570    10.4380 hc         1 PH1       0.039200
     67 H112         0.7640     0.9900     9.7050 hc         1 PH1       0.039200
     68 H121         2.8460    -0.0320     8.6980 hc         1 PH1       0.036700
     69 H122         2.5020    -1.5210     9.5510 hc         1 PH1       0.036700
     70 H13          3.0500     1.1880    10.8320 hc         1 PH1       0.043700
     71 H141         2.7000    -1.5370    12.1750 hc         1 PH1       0.031367
     72 H142         3.1210    -0.0350    12.9940 hc         1 PH1       0.031367
     73 H143         1.5420    -0.2120    12.2550 hc         1 PH1       0.031367
     74 H151         4.9770     0.1320     9.6790 hc         1 PH1       0.036700
     75 H152         4.7700    -1.3190    10.6360 hc         1 PH1       0.036700
     76 H161         5.2960    -0.0460    12.7110 hc         1 PH1       0.038700
     77 H162         5.3860     1.4390    11.7890 hc         1 PH1       0.038700
     78 H171         7.3320     0.5700    10.5220 hc         1 PH1       0.036700
     79 H172         7.1460    -1.0020    11.2670 hc         1 PH1       0.036700
     80 H18          7.6780    -0.0390    13.4840 hc         1 PH1       0.043700
     81 H191        10.1020     0.2770    13.0460 hc         1 PH1       0.031533
     82 H192         9.4650    -1.0320    12.0500 hc         1 PH1       0.031533
     83 H193         9.7720     0.5520    11.3380 hc         1 PH1       0.031533
     84 H201         8.2070     2.5460    11.9420 hc         1 PH1       0.031533
     85 H202         6.9640     2.3180    13.1720 hc         1 PH1       0.031533
     86 H203         8.6640     2.2600    13.6200 hc         1 PH1       0.031533
     87 H311        -6.4340    -1.0970    -2.4890 h1         1 PH1       0.018700
     88 H312        -7.5550    -0.0240    -3.3230 h1         1 PH1       0.018700
     89 H321        -5.7440     1.6590    -3.6270 hc         1 PH1       0.052200
     90 H322        -4.6370     0.6310    -2.7280 hc         1 PH1       0.052200
     91 H33         -4.8690    -1.1440    -4.4490 hc         1 PH1       0.044700
     92 H341        -6.5080     0.9310    -5.9890 hc         1 PH1       0.031700
     93 H342        -5.9370    -0.5980    -6.6490 hc         1 PH1       0.031700
     94 H343        -7.1200    -0.5990    -5.3640 hc         1 PH1       0.031700
     95 H351        -4.0250     1.5620    -5.5590 hc         1 PH1       0.039200
     96 H352        -3.0710     0.5850    -4.4620 hc         1 PH1       0.039200
     97 H361        -3.0000    -1.2600    -6.1420 hc         1 PH1       0.038200
     98 H362        -3.9350    -0.2840    -7.2530 hc         1 PH1       0.038200
     99 H371        -2.1480     1.4270    -7.3210 hc         1 PH1       0.037200
    100 H372        -1.2320     0.5470    -6.1150 hc         1 PH1       0.037200
    101 H38         -0.9560    -1.3550    -7.6570 hc         1 PH1       0.044700
    102 H391        -2.4260     0.4080    -9.6790 hc         1 PH1       0.032033
    103 H392        -1.5910    -1.0910   -10.0810 hc         1 PH1       0.032033
    104 H393        -2.9980    -1.1310    -9.0400 hc         1 PH1       0.032033
    105 H401        -0.1290     1.2990    -8.9020 hc         1 PH1       0.037200
    106 H402         0.6420     0.5850    -7.5030 hc         1 PH1       0.037200
    107 H411         1.2910    -1.4080    -8.8410 hc         1 PH1       0.038700
    108 H412         0.5140    -0.7300   -10.2540 hc         1 PH1       0.038700
    109 H421         2.0410     1.2270   -10.1960 hc         1 PH1       0.036700
    110 H422         2.7920     0.6170    -8.7390 hc         1 PH1       0.036700
    111 H43          3.6240    -1.3640    -9.9570 hc         1 PH1       0.044700
    112 H441         2.3930    -0.0490   -12.4280 hc         1 PH1       0.032033
    113 H442         3.4670    -1.4460   -12.4600 hc         1 PH1       0.032033
    114 H443         1.8880    -1.5810   -11.7170 hc         1 PH1       0.032033
    115 H451         4.3110     1.2980   -11.2700 hc         1 PH1       0.036200
    116 H452         4.9240     0.7390    -9.7290 hc         1 PH1       0.036200
    117 H461         5.9710    -1.2360   -10.8870 hc         1 PH1       0.038200
    118 H462         5.4570    -0.5860   -12.4280 hc         1 PH1       0.038200
    119 H471         6.7190     1.5350   -11.9320 hc         1 PH1       0.036700
    120 H472         7.3240     0.8100   -10.4580 hc         1 PH1       0.036700
    121 H48          7.8140    -0.2210   -13.2800 hc         1 PH1       0.042700
    122 H491        10.1410     0.5960   -12.9250 hc         1 PH1       0.031533
    123 H492         8.9830     1.9190   -12.8040 hc         1 PH1       0.031533
    124 H493         9.6850     1.2250   -11.3430 hc         1 PH1       0.031533
    125 H501         8.9520    -1.2060   -10.6200 hc         1 PH1       0.031533
    126 H502         7.8820    -2.1110   -11.6880 hc         1 PH1       0.031533
    127 H503         9.5130    -1.7170   -12.2100 hc         1 PH1       0.031533
    128 H511        -8.7180     0.2360     1.2620 h1         1 PH1       0.026700
    129 H512        -7.8060     1.6640     0.7670 h1         1 PH1       0.026700
    130 H52         -7.9830    -0.9650    -0.7740 h1         1 PH1       0.042700
    131 H531        -9.4120     1.7160    -1.1880 hc         1 PH1       0.041700
    132 H532        -9.4690     0.3660    -2.3230 hc         1 PH1       0.041700
    133 H533       -10.1550     0.1830    -0.7200 hc         1 PH1       0.041700
@<TRIPOS>BOND
     1     1     2 1   
     2     1    43 1   
     3     2     3 1   
     4     2    46 1   
     5     2    47 1   
     6     3     4 1   
     7     3    48 1   
     8     3    49 1   
     9     4     5 1   
    10     4     6 1   
    11     4    50 1   
    12     5    51 1   
    13     5    52 1   
    14     5    53 1   
    15     6     7 1   
    16     6    54 1   
    17     6    55 1   
    18     7     8 1   
    19     7    56 1   
    20     7    57 1   
    21     8     9 1   
    22     8    58 1   
    23     8    59 1   
    24     9    10 1   
    25     9    11 1   
    26     9    60 1   
    27    10    61 1   
    28    10    62 1   
    29    10    63 1   
    30    11    12 1   
    31    11    64 1   
    32    11    65 1   
    33    12    13 1   
    34    12    66 1   
    35    12    67 1   
    36    13    14 1   
    37    13    68 1   
    38    13    69 1   
    39    14    15 1   
    40    14    16 1   
    41    14    70 1   
    42    15    71 1   
    43    15    72 1   
    44    15    73 1   
    45    16    17 1   
    46    16    74 1   
    47    16    75 1   
    48    17    18 1   
    49    17    76 1   
    50    17    77 1   
    51    18    19 1   
    52    18    78 1   
    53    18    79 1   
    54    19    20 1   
    55    19    21 1   
    56    19    80 1   
    57    20    81 1   
    58    20    82 1   
    59    20    83 1   
    60    21    84 1   
    61    21    85 1   
    62    21    86 1   
    63    22    23 1   
    64    22    44 1   
    65    23    24 1   
    66    23    87 1   
    67    23    88 1   
    68    24    25 1   
    69    24    89 1   
    70    24    90 1   
    71    25    26 1   
    72    25    27 1   
    73    25    91 1   
    74    26    92 1   
    75    26    93 1   
    76    26    94 1   
    77    27    28 1   
    78    27    95 1   
    79    27    96 1   
    80    28    29 1   
    81    28    97 1   
    82    28    98 1   
    83    29    30 1   
    84    29    99 1   
    85    29   100 1   
    86    30    31 1   
    87    30    32 1   
    88    30   101 1   
    89    31   102 1   
    90    31   103 1   
    91    31   104 1   
    92    32    33 1   
    93    32   105 1   
    94    32   106 1   
    95    33    34 1   
    96    33   107 1   
    97    33   108 1   
    98    34    35 1   
    99    34   109 1   
   100    34   110 1   
   101    35    36 1   
   102    35    37 1   
   103    35   111 1   
   104    36   112 1   
   105    36   113 1   
   106    36   114 1   
   107    37    38 1   
   108    37   115 1   
   109    37   116 1   
   110    38    39 1   
   111    38   117 1   
   112    38   118 1   
   113    39    40 1   
   114    39   119 1   
   115    39   120 1   
   116    40    41 1   
   117    40    42 1   
   118    40   121 1   
   119    41   122 1   
   120    41   123 1   
   121    41   124 1   
   122    42   125 1   
   123    42   126 1   
   124    42   127 1   
   125    43    44 1   
   126    43   128 1   
   127    43   129 1   
   128    44    45 1   
   129    44   130 1   
   130    45   131 1   
   131    45   132 1   
   132    45   133 1   
@<TRIPOS>SUBSTRUCTURE
     1 PH1         1 TEMP              0 ****  ****    0 ROOT
