@<TRIPOS>MOLECULE
PH2
   23    24     1     0     0
SMALL
No Charge or Current Charge


@<TRIPOS>ATOM
      1 N1          -0.6290     0.3740    -1.2620 ne         1 PH2      -0.424300
      2 C2           0.3200     0.0740    -2.1170 c2         1 PH2       0.318300
      3 C3           1.7330    -0.3760    -1.6850 c6         1 PH2       0.150500
      4 N4           1.9100    -0.3050    -0.2070 nu         1 PH2      -0.792200
      5 N5           1.1640    -0.1610     1.8810 nc         1 PH2      -0.774300
      6 C6           0.2190     0.0680     2.7330 cd         1 PH2       0.765800
      7 N6           0.5380    -0.0540     4.0050 nv         1 PH2      -1.049200
      8 N7          -1.0330     0.4050     2.4130 ns         1 PH2      -0.453400
      9 C8          -1.4440     0.5440     1.1240 c          1 PH2       0.618200
     10 O8          -2.5960     0.8560     0.8570 o          1 PH2      -0.522000
     11 C9          -0.3780     0.2830     0.1180 cc         1 PH2      -0.213600
     12 C10          0.8710    -0.0510     0.6150 cd         1 PH2       0.452600
     13 C11          0.0760     0.1810    -3.6200 c3         1 PH2       0.146300
     14 O4          -0.0480    -1.1130    -4.2410 oh         1 PH2      -0.619000
     15 H31          1.9010    -1.4060    -2.0340 h1         1 PH2       0.045200
     16 H32          2.4790     0.2600    -2.1830 h1         1 PH2       0.045200
     17 HN4          2.7360    -0.6860     0.2530 hn         1 PH2       0.501000
     18 HN61         1.4360    -0.4990     4.1410 hn         1 PH2       0.506000
     19 HN62        -0.1930    -0.3630     4.6330 hn         1 PH2       0.506000
     20 HN7         -1.7130     0.5890     3.1310 hn         1 PH2       0.323500
     21 H111        -0.8350     0.7670    -3.8010 h1         1 PH2       0.016200
     22 H112         0.9070     0.7330    -4.0770 h1         1 PH2       0.016200
     23 HO4         -0.2360    -0.9590    -5.1930 ho         1 PH2       0.437000
@<TRIPOS>BOND
     1     1     2 2   
     2     1    11 1   
     3     2     3 1   
     4     2    13 1   
     5     3     4 1   
     6     3    15 1   
     7     3    16 1   
     8     4    12 1   
     9     4    17 1   
    10     5     6 2   
    11     5    12 1   
    12     6     7 1   
    13     6     8 1   
    14     7    18 1   
    15     7    19 1   
    16     8     9 1   
    17     8    20 1   
    18     9    10 2   
    19     9    11 1   
    20    11    12 2   
    21    13    14 1   
    22    13    21 1   
    23    13    22 1   
    24    14    23 1   
@<TRIPOS>SUBSTRUCTURE
     1 PH2         1 TEMP              0 ****  ****    0 ROOT
