@<TRIPOS>MOLECULE
PH2
   23    24     1     0     0
SMALL
bcc


@<TRIPOS>ATOM
      1 N1          -0.5810     0.0170    -1.3160 ne         1 PH2      -0.424300
      2 C2           0.4020    -0.0780    -2.1110 c2         1 PH2       0.318300
      3 C3           1.8100    -0.3720    -1.6490 c6         1 PH2       0.150500
      4 N4           1.9710     0.0970    -0.2930 nu         1 PH2      -0.737000
      5 N5           1.2360     0.1360     1.8810 nc         1 PH2      -0.774300
      6 C6           0.2220     0.0920     2.7120 cd         1 PH2       0.765800
      7 N6           0.4410     0.1980     4.0260 nv         1 PH2      -0.938800
      8 N7          -1.0580    -0.0390     2.2940 ns         1 PH2      -0.520400
      9 C8          -1.4440    -0.0900     0.9470 c          1 PH2       0.760700
     10 O8          -2.6360    -0.1550     0.6720 o          1 PH2      -0.597500
     11 C9          -0.3440    -0.0600     0.0510 cc         1 PH2      -0.213600
     12 C10          0.9450     0.0410     0.5720 cd         1 PH2       0.452600
     13 C11          0.2330     0.0390    -3.5910 c3         1 PH2       0.123100
     14 O4          -1.1180     0.1550    -3.9300 oh         1 PH2      -0.556800
     15 H31          1.9970    -1.4530    -1.7370 h1         1 PH2       0.045200
     16 H32          2.5400     0.1250    -2.2900 h1         1 PH2       0.045200
     17 HN4          2.9020     0.1330     0.0910 hn         1 PH2       0.445800
     18 HN61         1.3910     0.1740     4.3540 hn         1 PH2       0.450800
     19 HN62        -0.2820     0.0050     4.6980 hn         1 PH2       0.450800
     20 HN7         -1.8040    -0.0610     2.9750 hn         1 PH2       0.323500
     21 H111         0.8280     0.9020    -3.9300 h1         1 PH2       0.016200
     22 H112         0.7070    -0.8420    -4.0530 h1         1 PH2       0.016200
     23 HO4         -1.1750     0.1950    -4.8890 ho         1 PH2       0.398000
@<TRIPOS>BOND
     1     1     2 2   
     2     1    11 1   
     3     2     3 1   
     4     2    13 1   
     5     3     4 1   
     6     3    15 1   
     7     3    16 1   
     8     4    12 1   
     9     4    17 1   
    10     5     6 2   
    11     5    12 1   
    12     6     7 1   
    13     6     8 1   
    14     7    18 1   
    15     7    19 1   
    16     8     9 1   
    17     8    20 1   
    18     9    10 2   
    19     9    11 1   
    20    11    12 2   
    21    13    14 1   
    22    13    21 1   
    23    13    22 1   
    24    14    23 1   
@<TRIPOS>SUBSTRUCTURE
     1 PH2         1 TEMP              0 ****  ****    0 ROOT
