@<TRIPOS>MOLECULE
PH3
   20    20     1     0     0
SMALL
No Charge or Current Charge


@<TRIPOS>ATOM
      1 Cl           1.7750    -1.3360    -3.8730 cl         1 PH3      -0.201000
      2 C1           0.2180     0.1020     0.1830 ca         1 PH3       0.309000
      3 C2           1.5110     0.4490    -0.2410 ca         1 PH3      -0.149500
      4 C3           1.9940     0.0050    -1.4870 ca         1 PH3      -0.073500
      5 C4           1.1750    -0.7820    -2.3150 ca         1 PH3       0.091000
      6 C5          -0.1240    -1.1220    -1.9010 ca         1 PH3      -0.073500
      7 C6          -0.6020    -0.6770    -0.6540 ca         1 PH3      -0.149500
      8 CZ          -0.7890    -0.0790     2.4540 c2         1 PH3       0.790100
      9 NH1         -0.6300     0.6040     3.6210 nu         1 PH3      -0.647900
     10 NH2         -1.0040    -1.3110     2.4400 n2         1 PH3      -0.825100
     11 OH          -1.0380     2.0290     3.6240 oh         1 PH3      -0.408300
     12 H2           2.1480     1.0570     0.3960 ha         1 PH3       0.127500
     13 H3           2.9970     0.2710    -1.8110 ha         1 PH3       0.131000
     14 H5          -0.7590    -1.7230    -2.5480 ha         1 PH3       0.131000
     15 H6          -1.6150    -0.9250    -0.3500 ha         1 PH3       0.127500
     16 HNE          0.1820     1.4120     1.7480 hn         1 PH3       0.496000
     17 HN1         -1.0840     0.1010     4.3870 hn         1 PH3       0.476000
     18 HN2         -0.8540    -1.5980     1.4700 hn         1 PH3       0.385400
     19 HO          -0.4460     2.4990     4.2650 ho         1 PH3       0.460000
     20 NE          -0.2430     0.5560     1.4120 nu         1 PH3      -0.996200
@<TRIPOS>BOND
     1     1     5 1   
     2     2     3 ar  
     3     2     7 ar  
     4     2    20 1   
     5     3     4 ar  
     6     3    12 1   
     7     4     5 ar  
     8     4    13 1   
     9     5     6 ar  
    10     6     7 ar  
    11     6    14 1   
    12     7    15 1   
    13     8     9 1   
    14     8    10 2   
    15     8    20 1   
    16     9    11 1   
    17     9    17 1   
    18    10    18 1   
    19    11    19 1   
    20    16    20 1   
@<TRIPOS>SUBSTRUCTURE
     1 PH3         1 TEMP              0 ****  ****    0 ROOT
