@<TRIPOS>MOLECULE
PH3
   20    20     1     0     0
SMALL
abcg2


@<TRIPOS>ATOM
      1 CL          -0.2890    -0.1890    -4.1280 cl         1 PH3      -0.201000
      2 C1           0.6730    -0.0970     0.2890 ca         1 PH3       0.309000
      3 C2           1.5530     0.4510    -0.6470 ca         1 PH3      -0.149500
      4 C3           1.2700     0.4170    -2.0010 ca         1 PH3      -0.073500
      5 C4           0.0840    -0.1540    -2.4340 ca         1 PH3       0.091000
      6 C5          -0.8030    -0.7040    -1.5230 ca         1 PH3      -0.073500
      7 C6          -0.5070    -0.6870    -0.1700 ca         1 PH3      -0.149500
      8 CZ           0.2680    -0.0230     2.7700 c2         1 PH3       0.790100
      9 NH1         -1.0260     0.4060     2.5260 nu         1 PH3      -0.647900
     10 NH2          0.6620    -0.3340     3.9380 n2         1 PH3      -0.825100
     11 OH          -1.7520     0.7080     3.6550 oh         1 PH3      -0.408300
     12 H2           2.4750     0.9110    -0.3130 ha         1 PH3       0.127500
     13 H3           1.9680     0.8450    -2.7080 ha         1 PH3       0.131000
     14 H5          -1.7220    -1.1630    -1.8610 ha         1 PH3       0.131000
     15 H6          -1.1990    -1.1470     0.5200 ha         1 PH3       0.127500
     16 HNE          2.0430    -0.0790     1.8050 hn         1 PH3       0.496000
     17 HN1         -1.1060     1.1620     1.8570 hn         1 PH3       0.476000
     18 HN2          1.5960    -0.7260     3.9050 hn         1 PH3       0.385400
     19 HO          -2.4250     0.0210     3.7090 ho         1 PH3       0.460000
     20 NE           1.0500    -0.0860     1.6310 nu         1 PH3      -0.996200
@<TRIPOS>BOND
     1     1     5 1   
     2     2     3 ar  
     3     2     7 ar  
     4     2    20 1   
     5     3     4 ar  
     6     3    12 1   
     7     4     5 ar  
     8     4    13 1   
     9     5     6 ar  
    10     6     7 ar  
    11     6    14 1   
    12     7    15 1   
    13     8     9 1   
    14     8    10 2   
    15     8    20 1   
    16     9    11 1   
    17     9    17 1   
    18    10    18 1   
    19    11    19 1   
    20    16    20 1   
@<TRIPOS>SUBSTRUCTURE
     1 PH3         1 TEMP              0 ****  ****    0 ROOT
