@<TRIPOS>MOLECULE
PH5
   55    56     1     0     0
SMALL
bcc


@<TRIPOS>ATOM
      1 C1          -0.6940    -1.2290    -2.4100 c          1 PH5       0.895600
      2 O1A         -0.7400    -2.3430    -2.9640 o          1 PH5      -0.805300
      3 O1B         -0.6560    -0.1140    -2.9530 o          1 PH5      -0.805300
      4 C2          -0.7510    -1.2680    -0.8440 c6         1 PH5       0.216600
      5 O2          -2.0690    -1.4550    -0.4240 os         1 PH5      -0.406600
      6 C3           0.0590    -2.4130    -0.2530 c6         1 PH5      -0.113400
      7 C4           1.5490    -2.1750    -0.4510 c6         1 PH5       0.133100
      8 O4           2.3330    -3.1650     0.1740 oh         1 PH5      -0.605800
      9 C5           1.9410    -0.8280     0.1460 c6         1 PH5       0.074700
     10 N5           3.3210    -0.5170    -0.1320 ns         1 PH5      -0.562900
     11 C10          4.3070    -0.4990     0.7870 c          1 PH5       0.671100
     12 O10          4.1150    -0.6710     1.9810 o          1 PH5      -0.602100
     13 C11          5.6840    -0.2290     0.2110 c3         1 PH5      -0.163400
     14 C12          6.7860    -0.2090     1.2540 c3         1 PH5      -0.071100
     15 C6           1.0340     0.2800    -0.4120 c6         1 PH5       0.141100
     16 O6          -0.3240    -0.0580    -0.2620 os         1 PH5      -0.464600
     17 C7           1.2080     1.6000     0.3400 c3         1 PH5       0.126100
     18 O7           0.7360     1.4850     1.6630 oh         1 PH5      -0.603800
     19 C8           0.5480     2.7670    -0.4160 c3         1 PH5       0.114100
     20 O8           1.1770     2.9550    -1.6650 oh         1 PH5      -0.555800
     21 C9           0.5590     4.0400     0.4150 c3         1 PH5       0.102400
     22 O9          -0.0590     5.0690    -0.3250 oh         1 PH5      -0.585800
     23 CB          -3.0370    -0.5390    -0.9080 c3         1 PH5       0.188700
     24 CG          -4.1440    -0.4500     0.1030 ca         1 PH5      -0.065300
     25 CD1         -3.8510    -0.1760     1.4390 ca         1 PH5      -0.115000
     26 CD2         -5.4730    -0.6090    -0.2730 ca         1 PH5      -0.115000
     27 CE1         -4.8670    -0.0580     2.3740 ca         1 PH5      -0.141500
     28 CE2         -6.4950    -0.4870     0.6620 ca         1 PH5      -0.141500
     29 CZ          -6.1950    -0.2120     1.9880 ca         1 PH5      -0.146000
     30 H3C1        -0.2360    -3.3570    -0.7130 hc         1 PH5       0.060700
     31 H3C2        -0.1520    -2.4810     0.8200 hc         1 PH5       0.060700
     32 H4           1.7640    -2.1480    -1.5310 h1         1 PH5       0.051700
     33 HA           2.1640    -4.0030    -0.2670 ho         1 PH5       0.399000
     34 H5           1.8220    -0.8800     1.2310 h1         1 PH5       0.102700
     35 HB           3.5810    -0.4120    -1.1020 hn         1 PH5       0.304500
     36 H111         5.6530     0.7230    -0.3280 hc         1 PH5       0.049700
     37 H112         5.8940    -0.9870    -0.5490 hc         1 PH5       0.049700
     38 H121         6.6280     0.5760     1.9920 hc         1 PH5       0.035367
     39 H122         6.8550    -1.1580     1.7840 hc         1 PH5       0.035367
     40 H123         7.7480    -0.0270     0.7770 hc         1 PH5       0.035367
     41 H6           1.2840     0.4420    -1.4680 h1         1 PH5       0.085700
     42 H7           2.2800     1.8170     0.4170 h1         1 PH5       0.057700
     43 HC          -0.1450     1.0920     1.6200 ho         1 PH5       0.423000
     44 H8          -0.4910     2.5050    -0.6450 h1         1 PH5       0.114700
     45 HD           2.0790     3.2540    -1.5100 ho         1 PH5       0.377000
     46 H9C1         0.0380     3.8580     1.3600 h1         1 PH5       0.020200
     47 H9C2         1.5990     4.2960     0.6710 h1         1 PH5       0.020200
     48 H9          -0.0800     5.8560     0.2260 ho         1 PH5       0.387000
     49 HBC1        -2.6050     0.4530    -1.0620 h1         1 PH5       0.058700
     50 HBC2        -3.4380    -0.8700    -1.8740 h1         1 PH5       0.058700
     51 HD1         -2.8200    -0.0520     1.7470 ha         1 PH5       0.136500
     52 HD2         -5.7150    -0.8340    -1.3050 ha         1 PH5       0.136500
     53 HE1         -4.6250     0.1550     3.4070 ha         1 PH5       0.117000
     54 HE2         -7.5250    -0.6140     0.3530 ha         1 PH5       0.117000
     55 HZ          -6.9880    -0.1200     2.7190 ha         1 PH5       0.113000
@<TRIPOS>BOND
     1     1     2 1   
     2     1     3 1   
     3     1     4 1   
     4     4     5 1   
     5     4     6 1   
     6     4    16 1   
     7     5    23 1   
     8     6     7 1   
     9     6    30 1   
    10     6    31 1   
    11     7     8 1   
    12     7     9 1   
    13     7    32 1   
    14     8    33 1   
    15     9    10 1   
    16     9    15 1   
    17     9    34 1   
    18    10    11 1   
    19    10    35 1   
    20    11    12 2   
    21    11    13 1   
    22    13    14 1   
    23    13    36 1   
    24    13    37 1   
    25    14    38 1   
    26    14    39 1   
    27    14    40 1   
    28    15    16 1   
    29    15    17 1   
    30    15    41 1   
    31    17    18 1   
    32    17    19 1   
    33    17    42 1   
    34    18    43 1   
    35    19    20 1   
    36    19    21 1   
    37    19    44 1   
    38    20    45 1   
    39    21    22 1   
    40    21    46 1   
    41    21    47 1   
    42    22    48 1   
    43    23    24 1   
    44    23    49 1   
    45    23    50 1   
    46    24    25 ar  
    47    24    26 ar  
    48    25    27 ar  
    49    25    51 1   
    50    26    28 ar  
    51    26    52 1   
    52    27    29 ar  
    53    27    53 1   
    54    28    29 ar  
    55    28    54 1   
    56    29    55 1   
@<TRIPOS>SUBSTRUCTURE
     1 PH5         1 TEMP              0 ****  ****    0 ROOT
