@<TRIPOS>MOLECULE
PH5
   55    56     1     0     0
SMALL
No Charge or Current Charge


@<TRIPOS>ATOM
      1 C1          -0.8800    -1.2420    -2.2460 c          1 PH5       0.685000
      2 O1A         -1.8990    -1.7430    -2.7140 o          1 PH5      -0.700000
      3 O1B         -0.3260    -0.3740    -2.9090 o          1 PH5      -0.700000
      4 C2          -0.8170    -1.1040    -0.6280 c6         1 PH5       0.263000
      5 O2          -2.1270    -1.2280    -0.0070 os         1 PH5      -0.453000
      6 C3           0.0330    -2.2620    -0.0400 c6         1 PH5      -0.113400
      7 C4           1.5370    -2.0700    -0.3240 c6         1 PH5       0.156300
      8 O4           2.2780    -3.1610     0.2460 oh         1 PH5      -0.668000
      9 C5           2.0260    -0.7090     0.2510 c6         1 PH5       0.074700
     10 N5           3.4670    -0.5140    -0.0410 ns         1 PH5      -0.495900
     11 C10          4.4080    -0.0070     0.8260 c          1 PH5       0.604100
     12 O10          4.1270     0.3670     1.9550 o          1 PH5      -0.602100
     13 C11          5.8270     0.0890     0.2560 c3         1 PH5      -0.163400
     14 C12          6.7540    -0.9900     0.8570 c3         1 PH5      -0.071100
     15 C6           1.1450     0.4300    -0.3480 c6         1 PH5       0.164300
     16 O6          -0.2740     0.1580    -0.1190 os         1 PH5      -0.511000
     17 C7           1.4040     1.8290     0.3120 c3         1 PH5       0.149300
     18 O7           0.6530     1.8920     1.5390 oh         1 PH5      -0.726000
     19 C8           1.0100     3.0270    -0.6070 c3         1 PH5       0.137300
     20 O8           1.8040     3.0180    -1.8070 oh         1 PH5      -0.618000
     21 C9           1.2070     4.4110     0.0700 c3         1 PH5       0.125600
     22 O9           0.9660     5.4650    -0.8810 oh         1 PH5      -0.708000
     23 CB          -3.0920    -0.1890    -0.2760 c3         1 PH5       0.211900
     24 CG          -4.3970    -0.5460     0.4260 ca         1 PH5      -0.065300
     25 CD1         -4.6560    -0.0770     1.7300 ca         1 PH5      -0.097000
     26 CD2         -5.3570    -1.3470    -0.2240 ca         1 PH5      -0.097000
     27 CE1         -5.8620    -0.4040     2.3740 ca         1 PH5      -0.123500
     28 CE2         -6.5630    -1.6730     0.4210 ca         1 PH5      -0.123500
     29 CZ          -6.8160    -1.2010     1.7200 ca         1 PH5      -0.128000
     30 H3C1        -0.3110    -3.2160    -0.4630 hc         1 PH5       0.060700
     31 H3C2        -0.1310    -2.3250     1.0450 hc         1 PH5       0.060700
     32 H4           1.6870    -2.0560    -1.4150 h1         1 PH5       0.051700
     33 HA           1.9850    -3.9780    -0.2130 ho         1 PH5       0.438000
     34 H5           1.8830    -0.7250     1.3410 h1         1 PH5       0.102700
     35 HB           3.8150    -0.8160    -0.9430 hn         1 PH5       0.304500
     36 H111         6.2430     1.0730     0.5020 hc         1 PH5       0.049700
     37 H112         5.8090    -0.0440    -0.8320 hc         1 PH5       0.049700
     38 H121         6.8270    -0.8780     1.9450 hc         1 PH5       0.035367
     39 H122         6.3720    -1.9940     0.6370 hc         1 PH5       0.035367
     40 H123         7.7630    -0.9060     0.4360 hc         1 PH5       0.035367
     41 H6           1.3530     0.5060    -1.4230 h1         1 PH5       0.085700
     42 H7           2.4760     1.9280     0.5230 h1         1 PH5       0.057700
     43 HC          -0.0800     1.2450     1.3730 ho         1 PH5       0.522000
     44 H8          -0.0560     2.9250    -0.8590 h1         1 PH5       0.114700
     45 HD           1.7830     3.9540    -2.1130 ho         1 PH5       0.416000
     46 H9C1         0.5150     4.5030     0.9180 h1         1 PH5       0.020200
     47 H9C2         2.2300     4.4810     0.4640 h1         1 PH5       0.020200
     48 H9           1.0360     6.3190    -0.3910 ho         1 PH5       0.486000
     49 HBC1        -2.7370     0.7820     0.0950 h1         1 PH5       0.058700
     50 HBC2        -3.2800    -0.0820    -1.3510 h1         1 PH5       0.058700
     51 HD1         -3.9210     0.5390     2.2440 ha         1 PH5       0.118500
     52 HD2         -5.1650    -1.7180    -1.2290 ha         1 PH5       0.118500
     53 HE1         -6.0570    -0.0390     3.3800 ha         1 PH5       0.099000
     54 HE2         -7.3000    -2.2910    -0.0860 ha         1 PH5       0.099000
     55 HZ          -7.7490    -1.4530     2.2180 ha         1 PH5       0.095000
@<TRIPOS>BOND
     1     1     2 1   
     2     1     3 1   
     3     1     4 1   
     4     4     5 1   
     5     4     6 1   
     6     4    16 1   
     7     5    23 1   
     8     6     7 1   
     9     6    30 1   
    10     6    31 1   
    11     7     8 1   
    12     7     9 1   
    13     7    32 1   
    14     8    33 1   
    15     9    10 1   
    16     9    15 1   
    17     9    34 1   
    18    10    11 1   
    19    10    35 1   
    20    11    12 2   
    21    11    13 1   
    22    13    14 1   
    23    13    36 1   
    24    13    37 1   
    25    14    38 1   
    26    14    39 1   
    27    14    40 1   
    28    15    16 1   
    29    15    17 1   
    30    15    41 1   
    31    17    18 1   
    32    17    19 1   
    33    17    42 1   
    34    18    43 1   
    35    19    20 1   
    36    19    21 1   
    37    19    44 1   
    38    20    45 1   
    39    21    22 1   
    40    21    46 1   
    41    21    47 1   
    42    22    48 1   
    43    23    24 1   
    44    23    49 1   
    45    23    50 1   
    46    24    25 ar  
    47    24    26 ar  
    48    25    27 ar  
    49    25    51 1   
    50    26    28 ar  
    51    26    52 1   
    52    27    29 ar  
    53    27    53 1   
    54    28    29 ar  
    55    28    54 1   
    56    29    55 1   
@<TRIPOS>SUBSTRUCTURE
     1 PH5         1 TEMP              0 ****  ****    0 ROOT
