@<TRIPOS>MOLECULE
PH6
   32    33     1     0     0
SMALL
No Charge or Current Charge


@<TRIPOS>ATOM
      1 C          142.9990   -17.3730    99.7750 c          1 PH6       0.727000
      2 O          144.1330   -17.0680    99.4220 o          1 PH6      -0.729000
      3 CA         142.0930   -16.3390   100.5890 c5         1 PH6       0.015500
      4 CB         140.8930   -15.8790    99.7210 c5         1 PH6      -0.086400
      5 CG         141.5840   -14.8460    98.7860 c5         1 PH6      -0.095700
      6 CD         142.6130   -14.1690    99.7550 c5         1 PH6       0.161800
      7 N          142.6870   -15.0120   100.9800 n7         1 PH6      -0.797400
      8 C1         140.6200   -13.8700    98.0380 c6         1 PH6      -0.047700
      9 C6         141.3870   -12.8430    97.1360 c6         1 PH6      -0.069400
     10 C5         141.4780   -13.3120    95.6650 c6         1 PH6      -0.072900
     11 C4         140.0660   -13.4520    95.0270 c6         1 PH6      -0.070400
     12 C3         138.9650   -13.8260    96.0600 c6         1 PH6      -0.072900
     13 C2         139.5470   -14.6650    97.2210 c6         1 PH6      -0.069400
     14 OXT        142.5660   -18.5040    99.5890 o          1 PH6      -0.729000
     15 HA         141.7440   -16.8720   101.4840 h1         1 PH6       0.039700
     16 HB2        140.4240   -16.7040    99.1730 hc         1 PH6       0.028700
     17 HB3        140.1130   -15.4110   100.3350 hc         1 PH6       0.028700
     18 H          142.0660   -14.5890   101.6770 hn         1 PH6       0.349000
     19 HG2        142.1310   -15.3730    97.9950 hc         1 PH6       0.069700
     20 HD2        143.5980   -14.0990    99.2720 h1         1 PH6       0.029700
     21 HD3        142.3090   -13.1480   100.0250 h1         1 PH6       0.029700
     22 H1         140.0880   -13.2870    98.8030 hc         1 PH6       0.030700
     23 H61        140.8650   -11.8760    97.1650 hc         1 PH6       0.037950
     24 H62        142.3940   -12.6440    97.5250 hc         1 PH6       0.037950
     25 H21        139.9860   -15.5830    96.8040 hc         1 PH6       0.037950
     26 H22        138.7360   -14.9900    97.8880 hc         1 PH6       0.037950
     27 H51        142.0830   -12.6090    95.0780 hc         1 PH6       0.032450
     28 H52        142.0010   -14.2780    95.6230 hc         1 PH6       0.032450
     29 H41        139.7860   -12.5120    94.5320 hc         1 PH6       0.024700
     30 H42        140.1060   -14.2130    94.2350 hc         1 PH6       0.024700
     31 H31        138.5110   -12.9110    96.4670 hc         1 PH6       0.032450
     32 H32        138.1550   -14.3760    95.5610 hc         1 PH6       0.032450
@<TRIPOS>BOND
     1     1     2 1   
     2     1     3 1   
     3     1    14 1   
     4     3     4 1   
     5     3     7 1   
     6     3    15 1   
     7     4     5 1   
     8     4    16 1   
     9     4    17 1   
    10     5     6 1   
    11     5     8 1   
    12     5    19 1   
    13     6     7 1   
    14     6    20 1   
    15     6    21 1   
    16     7    18 1   
    17     8     9 1   
    18     8    13 1   
    19     8    22 1   
    20     9    10 1   
    21     9    23 1   
    22     9    24 1   
    23    10    11 1   
    24    10    27 1   
    25    10    28 1   
    26    11    12 1   
    27    11    29 1   
    28    11    30 1   
    29    12    13 1   
    30    12    31 1   
    31    12    32 1   
    32    13    25 1   
    33    13    26 1   
@<TRIPOS>SUBSTRUCTURE
     1 PH6         1 TEMP              0 ****  ****    0 ROOT
