@<TRIPOS>MOLECULE
PH6
   32    33     1     0     0
SMALL
abcg2


@<TRIPOS>ATOM
      1 C          143.0120   -17.3410   100.0260 c          1 PH6       0.727000
      2 O          144.1550   -16.9740    99.6910 o          1 PH6      -0.729000
      3 CA         142.0360   -16.2890   100.5930 c5         1 PH6       0.015500
      4 CB         140.9480   -15.9550    99.5620 c5         1 PH6      -0.086400
      5 CG         141.6210   -14.8970    98.6810 c5         1 PH6      -0.095700
      6 CD         142.6270   -14.2230    99.6510 c5         1 PH6       0.161800
      7 N          142.6550   -15.0000   100.8940 n7         1 PH6      -0.797400
      8 C1         140.6480   -13.9260    98.0190 c6         1 PH6      -0.047700
      9 C6         141.3710   -12.8780    97.1450 c6         1 PH6      -0.069400
     10 C5         141.4270   -13.3120    95.6860 c6         1 PH6      -0.072900
     11 C4         140.0170   -13.3670    95.0840 c6         1 PH6      -0.070400
     12 C3         138.9700   -13.7740    96.1330 c6         1 PH6      -0.072900
     13 C2         139.5930   -14.6770    97.1910 c6         1 PH6      -0.069400
     14 OXT        142.5420   -18.4960    99.9320 o          1 PH6      -0.729000
     15 HA         141.5970   -16.6960   101.5090 h1         1 PH6       0.039700
     16 HB2        140.5930   -16.8220    99.0050 hc         1 PH6       0.028700
     17 HB3        140.0820   -15.5190   100.0730 hc         1 PH6       0.028700
     18 H          142.0540   -14.5320   101.5610 hn         1 PH6       0.349000
     19 HG2        142.1820   -15.4080    97.8880 hc         1 PH6       0.069700
     20 HD2        143.6210   -14.1820    99.2020 h1         1 PH6       0.029700
     21 HD3        142.3410   -13.1910    99.8680 h1         1 PH6       0.029700
     22 H1         140.1250   -13.3910    98.8230 hc         1 PH6       0.030700
     23 H61        140.8480   -11.9190    97.2050 hc         1 PH6       0.037950
     24 H62        142.3770   -12.6900    97.5280 hc         1 PH6       0.037950
     25 H21        140.0540   -15.5390    96.6920 hc         1 PH6       0.037950
     26 H22        138.8250   -15.0880    97.8500 hc         1 PH6       0.037950
     27 H51        142.0590   -12.6350    95.1060 hc         1 PH6       0.032450
     28 H52        141.9030   -14.2950    95.6200 hc         1 PH6       0.032450
     29 H41        139.7550   -12.3940    94.6620 hc         1 PH6       0.024700
     30 H42        140.0020   -14.0740    94.2500 hc         1 PH6       0.024700
     31 H31        138.5630   -12.8840    96.6230 hc         1 PH6       0.032450
     32 H32        138.1230   -14.2670    95.6500 hc         1 PH6       0.032450
@<TRIPOS>BOND
     1     1     2 1   
     2     1     3 1   
     3     1    14 1   
     4     3     4 1   
     5     3     7 1   
     6     3    15 1   
     7     4     5 1   
     8     4    16 1   
     9     4    17 1   
    10     5     6 1   
    11     5     8 1   
    12     5    19 1   
    13     6     7 1   
    14     6    20 1   
    15     6    21 1   
    16     7    18 1   
    17     8     9 1   
    18     8    13 1   
    19     8    22 1   
    20     9    10 1   
    21     9    23 1   
    22     9    24 1   
    23    10    11 1   
    24    10    27 1   
    25    10    28 1   
    26    11    12 1   
    27    11    29 1   
    28    11    30 1   
    29    12    13 1   
    30    12    31 1   
    31    12    32 1   
    32    13    25 1   
    33    13    26 1   
@<TRIPOS>SUBSTRUCTURE
     1 PH6         1 TEMP              0 ****  ****    0 ROOT
