@<TRIPOS>MOLECULE
PH7
   43    45     1     0     0
SMALL
No Charge or Current Charge


@<TRIPOS>ATOM
      1 C1          -9.7040    55.7460    46.9010 ce         1 PH7      -0.263200
      2 C2          -8.5010    55.3820    47.4460 cf         1 PH7       0.010400
      3 N           -8.4390    55.1000    48.8620 ns         1 PH7      -0.415100
      4 C           -7.5210    55.6070    49.7630 c          1 PH7       0.618700
      5 O           -6.6190    56.3620    49.4210 o          1 PH7      -0.573100
      6 CB2        -11.0280    55.9140    47.5630 ca         1 PH7      -0.016800
      7 CB3        -12.1840    55.4220    46.9300 ca         1 PH7      -0.094500
      8 CB6        -13.5630    56.2200    48.7740 ca         1 PH7       0.095100
      9 CB1        -11.1500    56.5770    48.8010 ca         1 PH7      -0.094500
     10 CB5        -12.4090    56.7250    49.4090 ca         1 PH7      -0.154500
     11 CA1        -15.0750    57.1740    50.4000 ca         1 PH7       0.142100
     12 CA2        -15.1570    58.5730    50.2270 ca         1 PH7      -0.041900
     13 CA3        -15.4220    59.3990    51.3340 ca         1 PH7      -0.079000
     14 CA4        -15.6080    58.8310    52.6080 ca         1 PH7      -0.123000
     15 CA5        -15.5330    57.4380    52.7770 ca         1 PH7      -0.094000
     16 CA6        -15.2690    56.6100    51.6720 ca         1 PH7      -0.120000
     17 CD2         -7.2340    55.2760    46.5830 c          1 PH7       0.717200
     18 OC1         -7.2810    55.6700    45.4230 o          1 PH7      -0.701000
     19 OC2         -6.2450    54.7130    47.0370 o          1 PH7      -0.701000
     20 CC1         -7.7300    55.2190    51.2160 ca         1 PH7      -0.124600
     21 CC2         -6.8630    55.7380    52.2060 ca         1 PH7      -0.076000
     22 CC3         -7.0320    55.4010    53.5600 ca         1 PH7      -0.129000
     23 CC4         -8.0680    54.5400    53.9480 ca         1 PH7      -0.111000
     24 CC5         -8.9360    54.0130    52.9800 ca         1 PH7      -0.129000
     25 CC6         -8.7720    54.3460    51.6240 ca         1 PH7      -0.076000
     26 CB4        -13.4440    55.5690    47.5360 ca         1 PH7      -0.154500
     27 OAB        -14.8160    56.3440    49.3340 os         1 PH7      -0.257200
     28 BrA2       -14.9240    59.3760    48.5000 br         1 PH7      -0.067100
     29 H1          -9.7410    55.9200    45.8240 ha         1 PH7       0.207000
     30 HN          -9.2760    54.7000    49.2620 hn         1 PH7       0.304500
     31 HB3        -12.1040    54.9150    45.9710 ha         1 PH7       0.119000
     32 HB1        -10.2730    56.9930    49.2900 ha         1 PH7       0.119000
     33 HB5        -12.4770    57.2350    50.3660 ha         1 PH7       0.112500
     34 HA3        -15.4860    60.4770    51.2060 ha         1 PH7       0.125000
     35 HA4        -15.8130    59.4720    53.4630 ha         1 PH7       0.112000
     36 HA5        -15.6790    57.0000    53.7630 ha         1 PH7       0.114000
     37 HA6        -15.2090    55.5320    51.8000 ha         1 PH7       0.131000
     38 HC2         -6.0530    56.4090    51.9290 ha         1 PH7       0.126000
     39 HC3         -6.3570    55.8100    54.3090 ha         1 PH7       0.103500
     40 HC4         -8.1980    54.2790    54.9970 ha         1 PH7       0.099000
     41 HC5         -9.7380    53.3430    53.2790 ha         1 PH7       0.103500
     42 HC6         -9.4620    53.9120    50.9050 ha         1 PH7       0.126000
     43 HB4        -14.3320    55.1810    47.0430 ha         1 PH7       0.112500
@<TRIPOS>BOND
     1     1     2 2   
     2     1     6 1   
     3     1    29 1   
     4     2     3 1   
     5     2    17 1   
     6     3     4 1   
     7     3    30 1   
     8     4     5 2   
     9     4    20 1   
    10     6     7 ar  
    11     6     9 ar  
    12     7    26 ar  
    13     7    31 1   
    14     8    10 ar  
    15     8    26 ar  
    16     8    27 1   
    17     9    10 ar  
    18     9    32 1   
    19    10    33 1   
    20    11    12 ar  
    21    11    16 ar  
    22    11    27 1   
    23    12    13 ar  
    24    12    28 1   
    25    13    14 ar  
    26    13    34 1   
    27    14    15 ar  
    28    14    35 1   
    29    15    16 ar  
    30    15    36 1   
    31    16    37 1   
    32    17    18 1   
    33    17    19 1   
    34    20    21 ar  
    35    20    25 ar  
    36    21    22 ar  
    37    21    38 1   
    38    22    23 ar  
    39    22    39 1   
    40    23    24 ar  
    41    23    40 1   
    42    24    25 ar  
    43    24    41 1   
    44    25    42 1   
    45    26    43 1   
@<TRIPOS>SUBSTRUCTURE
     1 PH7         1 TEMP              0 ****  ****    0 ROOT
