@<TRIPOS>MOLECULE
PH7
   43    45     1     0     0
SMALL
bcc


@<TRIPOS>ATOM
      1 C1          -9.7850    55.6020    47.0800 ce         1 PH7      -0.213200
      2 C2          -8.6340    55.2920    47.6880 cf         1 PH7       0.010400
      3 N           -8.5580    55.1160    49.0830 ns         1 PH7      -0.482100
      4 C           -7.6100    55.7080    49.8380 c          1 PH7       0.685700
      5 O           -6.8230    56.5230    49.3850 o          1 PH7      -0.573100
      6 CB2        -11.1030    55.8840    47.6500 ca         1 PH7      -0.016800
      7 CB3        -12.2230    55.6980    46.8300 ca         1 PH7      -0.112500
      8 CB6        -13.7000    56.4350    48.5640 ca         1 PH7       0.095100
      9 CB1        -11.3310    56.3720    48.9390 ca         1 PH7      -0.112500
     10 CB5        -12.6100    56.6460    49.3990 ca         1 PH7      -0.172500
     11 CA1        -15.2450    57.2880    50.1220 ca         1 PH7       0.142100
     12 CA2        -15.1920    58.6750    50.2290 ca         1 PH7      -0.041900
     13 CA3        -15.5000    59.2970    51.4300 ca         1 PH7      -0.097000
     14 CA4        -15.8600    58.5280    52.5280 ca         1 PH7      -0.141000
     15 CA5        -15.9150    57.1460    52.4250 ca         1 PH7      -0.112000
     16 CA6        -15.6030    56.5260    51.2240 ca         1 PH7      -0.138000
     17 CD2         -7.3860    54.9470    46.8740 c          1 PH7       0.927800
     18 OC1         -7.3330    55.4060    45.7180 o          1 PH7      -0.806300
     19 OC2         -6.5640    54.2020    47.4340 o          1 PH7      -0.806300
     20 CC1         -7.5860    55.3280    51.2840 ca         1 PH7      -0.124600
     21 CC2         -6.3820    55.4610    51.9740 ca         1 PH7      -0.094000
     22 CC3         -6.3050    55.1380    53.3190 ca         1 PH7      -0.147000
     23 CC4         -7.4360    54.7010    53.9980 ca         1 PH7      -0.129000
     24 CC5         -8.6430    54.5850    53.3230 ca         1 PH7      -0.147000
     25 CC6         -8.7170    54.8920    51.9720 ca         1 PH7      -0.094000
     26 CB4        -13.5060    55.9590    47.2730 ca         1 PH7      -0.172500
     27 OAB        -14.9930    56.6690    48.9330 os         1 PH7      -0.257200
     28 BRA2       -14.7230    59.7040    48.7280 br         1 PH7      -0.067100
     29 H1          -9.7500    55.6030    45.9970 ha         1 PH7       0.157000
     30 HN          -9.1710    54.4330    49.5030 hn         1 PH7       0.304500
     31 HB3        -12.0850    55.3390    45.8170 ha         1 PH7       0.137000
     32 HB1        -10.5040    56.5740    49.6050 ha         1 PH7       0.137000
     33 HB5        -12.7380    57.0260    50.4050 ha         1 PH7       0.130500
     34 HA3        -15.4620    60.3750    51.5130 ha         1 PH7       0.143000
     35 HA4        -16.1020    59.0170    53.4620 ha         1 PH7       0.130000
     36 HA5        -16.1970    56.5470    53.2800 ha         1 PH7       0.132000
     37 HA6        -15.6440    55.4480    51.1300 ha         1 PH7       0.149000
     38 HC2         -5.5010    55.8100    51.4530 ha         1 PH7       0.144000
     39 HC3         -5.3610    55.2320    53.8410 ha         1 PH7       0.121500
     40 HC4         -7.3770    54.4580    55.0510 ha         1 PH7       0.117000
     41 HC5         -9.5320    54.2600    53.8470 ha         1 PH7       0.121500
     42 HC6         -9.6780    54.8100    51.4780 ha         1 PH7       0.144000
     43 HB4        -14.3550    55.8060    46.6190 ha         1 PH7       0.130500
@<TRIPOS>BOND
     1     1     2 2   
     2     1     6 1   
     3     1    29 1   
     4     2     3 1   
     5     2    17 1   
     6     3     4 1   
     7     3    30 1   
     8     4     5 2   
     9     4    20 1   
    10     6     7 ar  
    11     6     9 ar  
    12     7    26 ar  
    13     7    31 1   
    14     8    10 ar  
    15     8    26 ar  
    16     8    27 1   
    17     9    10 ar  
    18     9    32 1   
    19    10    33 1   
    20    11    12 ar  
    21    11    16 ar  
    22    11    27 1   
    23    12    13 ar  
    24    12    28 1   
    25    13    14 ar  
    26    13    34 1   
    27    14    15 ar  
    28    14    35 1   
    29    15    16 ar  
    30    15    36 1   
    31    16    37 1   
    32    17    18 1   
    33    17    19 1   
    34    20    21 ar  
    35    20    25 ar  
    36    21    22 ar  
    37    21    38 1   
    38    22    23 ar  
    39    22    39 1   
    40    23    24 ar  
    41    23    40 1   
    42    24    25 ar  
    43    24    41 1   
    44    25    42 1   
    45    26    43 1   
@<TRIPOS>SUBSTRUCTURE
     1 PH7         1 TEMP              0 ****  ****    0 ROOT
