@<TRIPOS>MOLECULE
PH8
   28    28     1     0     0
SMALL
abcg2


@<TRIPOS>ATOM
      1 C           -4.3920     3.9090     2.6170 c          1 PH8       0.726000
      2 N           -5.9320     5.5730     3.4710 n8         1 PH8      -0.980200
      3 O           -4.8060     2.7860     2.9770 o          1 PH8      -0.733500
      4 CA          -5.4880     4.9300     2.2260 c3         1 PH8       0.019500
      5 CB          -5.0230     6.0120     1.2640 c3         1 PH8      -0.041400
      6 CG          -5.9020     3.4550    -0.7470 ca         1 PH8      -0.053300
      7 CI          -4.5440     5.5480    -0.1080 c3         1 PH8      -0.060400
      8 CJ          -5.6100     4.9090    -1.0100 c3         1 PH8      -0.025100
      9 CZ          -6.4300     0.7350    -0.2970 ca         1 PH8      -0.112000
     10 CD1         -7.1750     3.0220    -0.3860 ca         1 PH8      -0.096500
     11 CD2         -4.8990     2.4960    -0.8880 ca         1 PH8      -0.096500
     12 CE1         -7.4400     1.6770    -0.1600 ca         1 PH8      -0.103500
     13 CE2         -5.1570     1.1510    -0.6650 ca         1 PH8      -0.103500
     14 HN          -6.7260     6.1700     3.2670 hn         1 PH8       0.363500
     15 HA          -6.3080     4.3700     1.7580 h1         1 PH8       0.005700
     16 HZ          -6.6330    -0.3140    -0.1230 ha         1 PH8       0.095000
     17 HB          -4.2160     6.5740     1.7430 hc         1 PH8       0.021700
     18 HBA         -5.8440     6.7240     1.1150 hc         1 PH8       0.021700
     19 HD1         -7.9710     3.7490    -0.2730 ha         1 PH8       0.102000
     20 HD2         -3.9010     2.8050    -1.1800 ha         1 PH8       0.102000
     21 HE1         -8.4380     1.3660     0.1250 ha         1 PH8       0.096500
     22 HE2         -4.3620     0.4250    -0.7820 ha         1 PH8       0.096500
     23 HI          -3.6960     4.8700     0.0020 hc         1 PH8       0.039200
     24 HIA         -4.1550     6.4250    -0.6330 hc         1 PH8       0.039200
     25 HJ          -5.2750     5.0020    -2.0470 hc         1 PH8       0.023200
     26 HJA         -6.5370     5.4870    -0.9440 hc         1 PH8       0.023200
     27 OXT         -3.2050     4.2900     2.5930 o          1 PH8      -0.733500
     28 HNA         -6.2900     4.8610     4.0970 hn         1 PH8       0.363500
@<TRIPOS>BOND
     1     1     3 1   
     2     1     4 1   
     3     1    27 1   
     4     2     4 1   
     5     2    14 1   
     6     2    28 1   
     7     4     5 1   
     8     4    15 1   
     9     5     7 1   
    10     5    17 1   
    11     5    18 1   
    12     6     8 1   
    13     6    10 ar  
    14     6    11 ar  
    15     7     8 1   
    16     7    23 1   
    17     7    24 1   
    18     8    25 1   
    19     8    26 1   
    20     9    12 ar  
    21     9    13 ar  
    22     9    16 1   
    23    10    12 ar  
    24    10    19 1   
    25    11    13 ar  
    26    11    20 1   
    27    12    21 1   
    28    13    22 1   
@<TRIPOS>SUBSTRUCTURE
     1 PH8         1 TEMP              0 ****  ****    0 ROOT
