@<TRIPOS>MOLECULE
PH9
   59    63     1     0     0
SMALL
abcg2


@<TRIPOS>ATOM
      1 CB2        -10.5570    55.8170    47.5170 ca         1 PH9      -0.039300
      2 CB3        -11.2890    55.0260    48.3970 ca         1 PH9      -0.095500
      3 CB4        -12.3680    55.5390    49.0990 ca         1 PH9      -0.118500
      4 CB6        -12.7190    56.8670    48.9180 ca         1 PH9       0.062100
      5 CB5        -12.0300    57.6700    48.0250 ca         1 PH9      -0.118500
      6 CB1        -10.9570    57.1360    47.3280 ca         1 PH9      -0.095500
      7 C2          -8.0420    55.6270    47.6440 c3         1 PH9      -0.038300
      8 C1          -9.3240    55.2790    46.8580 c3         1 PH9      -0.041100
      9 N           -8.1320    55.2290    49.0260 ns         1 PH9      -0.464900
     10 C           -8.4660    56.0360    50.0460 c          1 PH9       0.598100
     11 CO2         -6.8400    54.9320    46.9610 c          1 PH9       0.714000
     12 O           -8.8020    57.2030    49.8820 o          1 PH9      -0.649100
     13 OC1         -6.5360    55.3700    45.8370 o          1 PH9      -0.720500
     14 OC2         -6.3090    53.9820    47.5700 o          1 PH9      -0.720500
     15 OAB        -13.7860    57.4000    49.6100 os         1 PH9      -0.241200
     16 CA1        -13.6600    57.5810    50.9450 ca         1 PH9       0.168100
     17 CA2        -14.8320    57.7310    51.6860 ca         1 PH9      -0.062900
     18 CA3        -14.7860    57.9450    53.0550 ca         1 PH9      -0.065000
     19 CA4        -13.5600    58.0050    53.7020 ca         1 PH9      -0.157000
     20 CA5        -12.3920    57.8590    52.9700 ca         1 PH9      -0.068000
     21 CA6        -12.4330    57.6480    51.6000 ca         1 PH9      -0.169000
     22 BRA2       -16.4950    57.6410    50.8060 br         1 PH9      -0.101100
     23 CC4         -9.7220    54.8070    54.0130 c6         1 PH9      -0.067067
     24 CC3         -8.5980    55.8400    53.9070 c6         1 PH9      -0.060700
     25 CC5         -9.5120    53.7190    52.9580 c6         1 PH9      -0.060700
     26 CC2         -8.6150    56.4680    52.5130 c6         1 PH9      -0.060400
     27 CC6         -9.5320    54.3440    51.5620 c6         1 PH9      -0.060400
     28 CC1         -8.4120    55.3960    51.4360 c6         1 PH9      -0.124000
     29 C10         -8.1620    53.0370    53.1860 c6         1 PH9      -0.067067
     30 CC8         -7.0410    54.0740    53.0880 c6         1 PH9      -0.060700
     31 CC9         -7.2510    55.1580    54.1460 c6         1 PH9      -0.067067
     32 CC7         -7.0570    54.7060    51.6930 c6         1 PH9      -0.060400
     33 HB3        -11.0050    53.9920    48.5500 ha         1 PH9       0.117000
     34 HB4        -12.9210    54.9120    49.7880 ha         1 PH9       0.115000
     35 HB5        -12.3230    58.7030    47.8830 ha         1 PH9       0.115000
     36 HB1        -10.4080    57.7700    46.6420 ha         1 PH9       0.117000
     37 H2          -7.9000    56.7090    47.6040 h1         1 PH9       0.066700
     38 H11         -9.4010    54.1920    46.7690 hc         1 PH9       0.057700
     39 H12         -9.2200    55.6760    45.8470 hc         1 PH9       0.057700
     40 HN          -7.7600    54.3120    49.2190 hn         1 PH9       0.330500
     41 HA3        -15.7020    58.0590    53.6190 ha         1 PH9       0.118000
     42 HA4        -13.5250    58.1650    54.7700 ha         1 PH9       0.109000
     43 HA5        -11.4320    57.9160    53.4680 ha         1 PH9       0.118000
     44 HA6        -11.5110    57.5410    51.0410 ha         1 PH9       0.160000
     45 HC3         -8.7490    56.6250    54.6530 hc         1 PH9       0.040700
     46 HC5        -10.3150    52.9790    53.0270 hc         1 PH9       0.040700
     47 HC21        -9.5660    56.9820    52.3540 hc         1 PH9       0.051533
     48 HC22        -7.8350    57.2310    52.4360 hc         1 PH9       0.051533
     49 HC61        -9.4010    53.5610    50.8090 hc         1 PH9       0.051533
     50 HC62       -10.5040    54.8070    51.3640 hc         1 PH9       0.051533
     51 H101        -8.1440    52.5530    54.1680 hc         1 PH9       0.033533
     52 H102        -8.0110    52.2480    52.4410 hc         1 PH9       0.033533
     53 HC8         -6.0740    53.5880    53.2440 hc         1 PH9       0.040700
     54 HC91        -6.4410    55.8920    54.0980 hc         1 PH9       0.033533
     55 HC92        -7.2210    54.7190    55.1480 hc         1 PH9       0.033533
     56 HC71        -6.8620    53.9240    50.9520 hc         1 PH9       0.051533
     57 HC72        -6.2450    55.4350    51.5960 hc         1 PH9       0.051533
     58 HC41        -9.7330    54.3620    55.0130 hc         1 PH9       0.033533
     59 HC42       -10.6940    55.2910    53.8680 hc         1 PH9       0.033533
@<TRIPOS>BOND
     1     1     2 ar  
     2     1     6 ar  
     3     1     8 1   
     4     2     3 ar  
     5     2    33 1   
     6     3     4 ar  
     7     3    34 1   
     8     4     5 ar  
     9     4    15 1   
    10     5     6 ar  
    11     5    35 1   
    12     6    36 1   
    13     7     8 1   
    14     7     9 1   
    15     7    11 1   
    16     7    37 1   
    17     8    38 1   
    18     8    39 1   
    19     9    10 1   
    20     9    40 1   
    21    10    12 2   
    22    10    28 1   
    23    11    13 1   
    24    11    14 1   
    25    15    16 1   
    26    16    17 ar  
    27    16    21 ar  
    28    17    18 ar  
    29    17    22 1   
    30    18    19 ar  
    31    18    41 1   
    32    19    20 ar  
    33    19    42 1   
    34    20    21 ar  
    35    20    43 1   
    36    21    44 1   
    37    23    24 1   
    38    23    25 1   
    39    23    58 1   
    40    23    59 1   
    41    24    26 1   
    42    24    31 1   
    43    24    45 1   
    44    25    27 1   
    45    25    29 1   
    46    25    46 1   
    47    26    28 1   
    48    26    47 1   
    49    26    48 1   
    50    27    28 1   
    51    27    49 1   
    52    27    50 1   
    53    28    32 1   
    54    29    30 1   
    55    29    51 1   
    56    29    52 1   
    57    30    31 1   
    58    30    32 1   
    59    30    53 1   
    60    31    54 1   
    61    31    55 1   
    62    32    56 1   
    63    32    57 1   
@<TRIPOS>SUBSTRUCTURE
     1 PH9         1 TEMP              0 ****  ****    0 ROOT
