@<TRIPOS>MOLECULE
PH9
   59    63     1     0     0
SMALL
No Charge or Current Charge


@<TRIPOS>ATOM
      1 CB2        -10.3340    55.8280    47.5300 ca         1 PH9      -0.039300
      2 CB3        -10.9740    55.0170    48.4880 ca         1 PH9      -0.095500
      3 CB4        -12.1500    55.4580    49.1190 ca         1 PH9      -0.118500
      4 CB6        -12.6930    56.7140    48.7920 ca         1 PH9       0.062100
      5 CB5        -12.0710    57.5180    47.8230 ca         1 PH9      -0.118500
      6 CB1        -10.8910    57.0790    47.1980 ca         1 PH9      -0.095500
      7 C2          -7.7650    55.8550    47.5880 c3         1 PH9      -0.038300
      8 C1          -9.0440    55.3590    46.8660 c3         1 PH9      -0.041100
      9 N           -7.7760    55.4970    49.0280 ns         1 PH9      -0.464900
     10 C           -8.1590    56.3280    50.0640 c          1 PH9       0.598100
     11 CO2         -6.4800    55.3090    46.8960 c          1 PH9       0.714000
     12 O           -8.4280    57.5070    49.8670 o          1 PH9      -0.649100
     13 OC1         -5.8000    56.0880    46.2430 o          1 PH9      -0.720500
     14 OC2         -6.1550    54.1460    47.1040 o          1 PH9      -0.720500
     15 OAB        -13.8360    57.1630    49.4100 os         1 PH9      -0.241200
     16 CA1        -14.0110    57.0470    50.7710 ca         1 PH9       0.168100
     17 CA2        -15.2330    56.5720    51.2870 ca         1 PH9      -0.062900
     18 CA3        -15.4070    56.4500    52.6770 ca         1 PH9      -0.065000
     19 CA4        -14.3650    56.8080    53.5500 ca         1 PH9      -0.157000
     20 CA5        -13.1490    57.2930    53.0380 ca         1 PH9      -0.068000
     21 CA6        -12.9740    57.4150    51.6490 ca         1 PH9      -0.169000
     22 BrA2       -16.6630    56.0700    50.1120 br         1 PH9      -0.101100
     23 CC4         -8.7520    56.0190    54.4250 c6         1 PH9      -0.067067
     24 CC3         -7.3040    55.8180    53.8850 c6         1 PH9      -0.060700
     25 CC5         -9.7670    55.2720    53.5100 c6         1 PH9      -0.060700
     26 CC2         -7.1990    56.3960    52.4440 c6         1 PH9      -0.060400
     27 CC6         -9.6830    55.8460    52.0670 c6         1 PH9      -0.060400
     28 CC1         -8.2340    55.7060    51.4950 c6         1 PH9      -0.124000
     29 C10         -9.4220    53.7580    53.4800 c6         1 PH9      -0.067067
     30 CC8         -7.9810    53.5680    52.9300 c6         1 PH9      -0.060700
     31 CC9         -6.9710    54.3010    53.8560 c6         1 PH9      -0.067067
     32 CC7         -7.8930    54.1660    51.4960 c6         1 PH9      -0.060400
     33 HB3        -10.5550    54.0490    48.7510 ha         1 PH9       0.117000
     34 HB4        -12.6330    54.8270    49.8600 ha         1 PH9       0.115000
     35 HB5        -12.4950    58.4860    47.5680 ha         1 PH9       0.115000
     36 HB1        -10.4050    57.7130    46.4590 ha         1 PH9       0.117000
     37 H2          -7.7290    56.9480    47.5020 h1         1 PH9       0.066700
     38 H11         -9.0270    54.2630    46.8240 hc         1 PH9       0.057700
     39 H12         -9.0150    55.6980    45.8230 hc         1 PH9       0.057700
     40 HN          -7.5230    54.5490    49.2780 hn         1 PH9       0.330500
     41 HA3        -16.3480    56.0780    53.0780 ha         1 PH9       0.118000
     42 HA4        -14.5000    56.7130    54.6250 ha         1 PH9       0.109000
     43 HA5        -12.3450    57.5750    53.7160 ha         1 PH9       0.118000
     44 HA6        -12.0390    57.8000    51.2500 ha         1 PH9       0.160000
     45 HC3         -6.5920    56.3370    54.5420 hc         1 PH9       0.040700
     46 HC5        -10.7840    55.4080    53.9010 hc         1 PH9       0.040700
     47 HC21        -7.3790    57.4800    52.4710 hc         1 PH9       0.051533
     48 HC22        -6.1780    56.2660    52.0560 hc         1 PH9       0.051533
     49 HC61       -10.4050    55.3350    51.4160 hc         1 PH9       0.051533
     50 HC62        -9.9760    56.9040    52.0820 hc         1 PH9       0.051533
     51 H101        -9.5030    53.3290    54.4890 hc         1 PH9       0.033533
     52 H102       -10.1430    53.2160    52.8530 hc         1 PH9       0.033533
     53 HC8         -7.7390    52.4970    52.8980 hc         1 PH9       0.040700
     54 HC91        -5.9440    54.1440    53.4980 hc         1 PH9       0.033533
     55 HC92        -7.0130    53.8820    54.8710 hc         1 PH9       0.033533
     56 HC71        -8.5830    53.6190    50.8360 hc         1 PH9       0.051533
     57 HC72        -6.8810    53.9940    51.1000 hc         1 PH9       0.051533
     58 HC41        -8.8260    55.6450    55.4550 hc         1 PH9       0.033533
     59 HC42        -8.9960    57.0900    54.4660 hc         1 PH9       0.033533
@<TRIPOS>BOND
     1     1     2 ar  
     2     1     6 ar  
     3     1     8 1   
     4     2     3 ar  
     5     2    33 1   
     6     3     4 ar  
     7     3    34 1   
     8     4     5 ar  
     9     4    15 1   
    10     5     6 ar  
    11     5    35 1   
    12     6    36 1   
    13     7     8 1   
    14     7     9 1   
    15     7    11 1   
    16     7    37 1   
    17     8    38 1   
    18     8    39 1   
    19     9    10 1   
    20     9    40 1   
    21    10    12 2   
    22    10    28 1   
    23    11    13 1   
    24    11    14 1   
    25    15    16 1   
    26    16    17 ar  
    27    16    21 ar  
    28    17    18 ar  
    29    17    22 1   
    30    18    19 ar  
    31    18    41 1   
    32    19    20 ar  
    33    19    42 1   
    34    20    21 ar  
    35    20    43 1   
    36    21    44 1   
    37    23    24 1   
    38    23    25 1   
    39    23    58 1   
    40    23    59 1   
    41    24    26 1   
    42    24    31 1   
    43    24    45 1   
    44    25    27 1   
    45    25    29 1   
    46    25    46 1   
    47    26    28 1   
    48    26    47 1   
    49    26    48 1   
    50    27    28 1   
    51    27    49 1   
    52    27    50 1   
    53    28    32 1   
    54    29    30 1   
    55    29    51 1   
    56    29    52 1   
    57    30    31 1   
    58    30    32 1   
    59    30    53 1   
    60    31    54 1   
    61    31    55 1   
    62    32    56 1   
    63    32    57 1   
@<TRIPOS>SUBSTRUCTURE
     1 PH9         1 TEMP              0 ****  ****    0 ROOT
