@<TRIPOS>MOLECULE
PHA
   22    22     1     0     0
SMALL
bcc


@<TRIPOS>ATOM
      1 N          -14.8480    21.6600    23.8000 n8         1 PHA      -0.888800
      2 CA         -15.1460    21.0730    25.0910 c3         1 PHA       0.040500
      3 C          -13.8320    20.7300    25.7530 c          1 PHA       0.579900
      4 O          -13.6130    19.7360    26.3960 o          1 PHA      -0.517100
      5 CB         -16.1350    19.9000    25.0970 c3         1 PHA      -0.059100
      6 CG         -17.4750    20.3020    24.5510 ca         1 PHA      -0.089300
      7 CD1        -18.4190    20.9190    25.3710 ca         1 PHA      -0.128500
      8 CD2        -17.7920    20.1070    23.2080 ca         1 PHA      -0.128500
      9 CE1        -19.6450    21.3270    24.8660 ca         1 PHA      -0.124500
     10 CE2        -19.0180    20.5140    22.6980 ca         1 PHA      -0.124500
     11 CZ         -19.9490    21.1260    23.5250 ca         1 PHA      -0.127000
     12 H          -15.6580    22.1440    23.4380 hn         1 PHA       0.351300
     13 H2         -14.6200    20.9360    23.1280 hn         1 PHA       0.351300
     14 HA         -15.5570    21.8790    25.7160 h1         1 PHA       0.077700
     15 HC         -13.0530    21.5000    25.5990 h4         1 PHA       0.006200
     16 HB2        -15.7210    19.0810    24.5040 hc         1 PHA       0.064200
     17 HB3        -16.2480    19.5280    26.1180 hc         1 PHA       0.064200
     18 HD1        -18.1920    21.0760    26.4200 ha         1 PHA       0.128500
     19 HD2        -17.0740    19.6230    22.5570 ha         1 PHA       0.128500
     20 HE1        -20.3670    21.8000    25.5210 ha         1 PHA       0.132000
     21 HE2        -19.2460    20.3500    21.6520 ha         1 PHA       0.132000
     22 HZ         -20.9060    21.4420    23.1300 ha         1 PHA       0.132000
@<TRIPOS>BOND
     1     1     2 1   
     2     1    12 1   
     3     1    13 1   
     4     2     3 1   
     5     2     5 1   
     6     2    14 1   
     7     3     4 2   
     8     3    15 1   
     9     5     6 1   
    10     5    16 1   
    11     5    17 1   
    12     6     7 ar  
    13     6     8 ar  
    14     7     9 ar  
    15     7    18 1   
    16     8    10 ar  
    17     8    19 1   
    18     9    11 ar  
    19     9    20 1   
    20    10    11 ar  
    21    10    21 1   
    22    11    22 1   
@<TRIPOS>SUBSTRUCTURE
     1 PHA         1 TEMP              0 ****  ****    0 ROOT
