@<TRIPOS>MOLECULE
PHA
   22    22     1     0     0
SMALL
No Charge or Current Charge


@<TRIPOS>ATOM
      1 N          -14.9480    21.8090    23.8600 n8         1 PHA      -0.888800
      2 CA         -15.0990    21.1020    25.1750 c3         1 PHA       0.040500
      3 C          -13.7520    20.6730    25.8470 c          1 PHA       0.579900
      4 O          -13.3370    19.5160    25.8990 o          1 PHA      -0.517100
      5 CB         -16.0930    19.9170    25.0250 c3         1 PHA      -0.059100
      6 CG         -17.4610    20.3370    24.4900 ca         1 PHA      -0.089300
      7 CD1        -18.3360    21.0930    25.2960 ca         1 PHA      -0.128500
      8 CD2        -17.8660    19.9670    23.1910 ca         1 PHA      -0.128500
      9 CE1        -19.5960    21.4800    24.8070 ca         1 PHA      -0.124500
     10 CE2        -19.1260    20.3550    22.7030 ca         1 PHA      -0.124500
     11 CZ         -19.9920    21.1120    23.5100 ca         1 PHA      -0.127000
     12 H          -15.8840    21.9960    23.4820 hn         1 PHA       0.351300
     13 H2         -14.5300    21.1710    23.1740 hn         1 PHA       0.351300
     14 HA         -15.5480    21.8210    25.8750 h1         1 PHA       0.077700
     15 HC         -13.1670    21.5060    26.2960 h4         1 PHA       0.006200
     16 HB2        -15.6480    19.1510    24.3770 hc         1 PHA       0.064200
     17 HB3        -16.2230    19.4400    26.0050 hc         1 PHA       0.064200
     18 HD1        -18.0390    21.3810    26.3020 ha         1 PHA       0.128500
     19 HD2        -17.2030    19.3810    22.5570 ha         1 PHA       0.128500
     20 HE1        -20.2660    22.0660    25.4350 ha         1 PHA       0.132000
     21 HE2        -19.4320    20.0670    21.6980 ha         1 PHA       0.132000
     22 HZ         -20.9670    21.4110    23.1320 ha         1 PHA       0.132000
@<TRIPOS>BOND
     1     1     2 1   
     2     1    12 1   
     3     1    13 1   
     4     2     3 1   
     5     2     5 1   
     6     2    14 1   
     7     3     4 2   
     8     3    15 1   
     9     5     6 1   
    10     5    16 1   
    11     5    17 1   
    12     6     7 ar  
    13     6     8 ar  
    14     7     9 ar  
    15     7    18 1   
    16     8    10 ar  
    17     8    19 1   
    18     9    11 ar  
    19     9    20 1   
    20    10    11 ar  
    21    10    21 1   
    22    11    22 1   
@<TRIPOS>SUBSTRUCTURE
     1 PHA         1 TEMP              0 ****  ****    0 ROOT
