@<TRIPOS>MOLECULE
PHB
   15    15     1     0     0
SMALL
bcc


@<TRIPOS>ATOM
      1 C1           2.1600     0.0140    -0.0160 c          1 PHB       0.924200
      2 O1           2.7450    -1.0820    -0.1190 o          1 PHB      -0.829300
      3 O2           2.6960     1.1390     0.0460 o          1 PHB      -0.829300
      4 C7           0.6410    -0.0200     0.0060 ca         1 PHB      -0.153600
      5 C2          -0.0500    -1.2300     0.0040 ca         1 PHB      -0.081000
      6 C3          -1.4350    -1.2720     0.0410 ca         1 PHB      -0.208500
      7 C4          -2.1640    -0.0870     0.0560 ca         1 PHB       0.082100
      8 C5          -1.4910     1.1330     0.0430 ca         1 PHB      -0.208500
      9 C6          -0.1050     1.1560     0.0300 ca         1 PHB      -0.081000
     10 O4          -3.5200    -0.1580     0.0410 oh         1 PHB      -0.528100
     11 H2           0.5080    -2.1570    -0.0190 ha         1 PHB       0.145000
     12 H3          -1.9580    -2.2210     0.0590 ha         1 PHB       0.110500
     13 H5          -2.0510     2.0610     0.0420 ha         1 PHB       0.110500
     14 H6           0.4100     2.1080     0.0290 ha         1 PHB       0.145000
     15 HO4         -3.8960     0.5680     0.5510 ho         1 PHB       0.402000
@<TRIPOS>BOND
     1     1     2 1   
     2     1     3 1   
     3     1     4 1   
     4     4     5 ar  
     5     4     9 ar  
     6     5     6 ar  
     7     5    11 1   
     8     6     7 ar  
     9     6    12 1   
    10     7     8 ar  
    11     7    10 1   
    12     8     9 ar  
    13     8    13 1   
    14     9    14 1   
    15    10    15 1   
@<TRIPOS>SUBSTRUCTURE
     1 PHB         1 TEMP              0 ****  ****    0 ROOT
