@<TRIPOS>MOLECULE
PHB
   15    15     1     0     0
SMALL
No Charge or Current Charge


@<TRIPOS>ATOM
      1 C1           2.1670     0.0260    -0.0560 c          1 PHB       0.713600
      2 O1           2.7870    -1.0270    -0.1100 o          1 PHB      -0.724000
      3 O2           2.7170     1.1180    -0.0490 o          1 PHB      -0.724000
      4 C7           0.6490    -0.0260     0.0050 ca         1 PHB      -0.153600
      5 C2          -0.0340    -1.2660    -0.0010 ca         1 PHB      -0.063000
      6 C3          -1.4380    -1.3100     0.0560 ca         1 PHB      -0.190500
      7 C4          -2.1780    -0.1220     0.1180 ca         1 PHB       0.082100
      8 C5          -1.5180     1.1140     0.1250 ca         1 PHB      -0.190500
      9 C6          -0.1140     1.1650     0.0690 ca         1 PHB      -0.063000
     10 O4          -3.5370    -0.1720     0.1730 oh         1 PHB      -0.567100
     11 H2           0.5220    -2.2000    -0.0490 ha         1 PHB       0.127000
     12 H3          -1.9490    -2.2700     0.0500 ha         1 PHB       0.092500
     13 H5          -2.0850     2.0410     0.1740 ha         1 PHB       0.092500
     14 H6           0.3800     2.1340     0.0750 ha         1 PHB       0.127000
     15 HO4         -3.8780     0.7480     0.2120 ho         1 PHB       0.441000
@<TRIPOS>BOND
     1     1     2 1   
     2     1     3 1   
     3     1     4 1   
     4     4     5 ar  
     5     4     9 ar  
     6     5     6 ar  
     7     5    11 1   
     8     6     7 ar  
     9     6    12 1   
    10     7     8 ar  
    11     7    10 1   
    12     8     9 ar  
    13     8    13 1   
    14     9    14 1   
    15    10    15 1   
@<TRIPOS>SUBSTRUCTURE
     1 PHB         1 TEMP              0 ****  ****    0 ROOT
