@<TRIPOS>MOLECULE
PHC
   25    25     1     0     0
SMALL
bcc


@<TRIPOS>ATOM
      1 N           -0.0560     0.1080     1.6200 n          1 PHC      -0.485800
      2 C           -0.9280     0.6650     2.4750 c          1 PHC       0.668900
      3 O           -1.4940     0.1000     3.3950 o          1 PHC      -0.601100
      4 CA           0.3160    -1.2860     1.7230 c3         1 PHC       0.078300
      5 CB           0.5860     0.9210     0.5930 c3         1 PHC       0.166000
      6 CG2          2.0680     1.1200     0.8800 c3         1 PHC      -0.106100
      7 CG           0.2730     0.3650    -0.7840 ca         1 PHC      -0.103300
      8 CD1         -1.0580     0.3140    -1.1990 ca         1 PHC      -0.114500
      9 CD2          1.2550    -0.1020    -1.6490 ca         1 PHC      -0.114500
     10 CE1         -1.3970    -0.1890    -2.4440 ca         1 PHC      -0.129000
     11 CE2          0.9200    -0.6090    -2.9000 ca         1 PHC      -0.129000
     12 CZ          -0.4060    -0.6540    -3.3010 ca         1 PHC      -0.121000
     13 H           -1.0970     1.7320     2.2570 h5         1 PHC       0.002200
     14 HA1         -0.2770    -1.7640     2.4960 h1         1 PHC       0.045033
     15 HA2          0.1360    -1.8020     0.7800 h1         1 PHC       0.045033
     16 HA3          1.3700    -1.3970     1.9800 h1         1 PHC       0.045033
     17 HB           0.1170     1.9080     0.6530 h1         1 PHC       0.056700
     18 HG21         2.6410     0.1930     0.8430 hc         1 PHC       0.045033
     19 HG22         2.5050     1.8100     0.1580 hc         1 PHC       0.045033
     20 HG23         2.1940     1.5520     1.8720 hc         1 PHC       0.045033
     21 HD1         -1.8410     0.6740    -0.5400 ha         1 PHC       0.131500
     22 HD2          2.2970    -0.0770    -1.3570 ha         1 PHC       0.131500
     23 HE1         -2.4360    -0.2170    -2.7490 ha         1 PHC       0.133000
     24 HE2          1.7000    -0.9680    -3.5590 ha         1 PHC       0.133000
     25 HZ          -0.6700    -1.0480    -4.2750 ha         1 PHC       0.132000
@<TRIPOS>BOND
     1     1     2 1   
     2     1     4 1   
     3     1     5 1   
     4     2     3 2   
     5     2    13 1   
     6     4    14 1   
     7     4    15 1   
     8     4    16 1   
     9     5     6 1   
    10     5     7 1   
    11     5    17 1   
    12     6    18 1   
    13     6    19 1   
    14     6    20 1   
    15     7     8 ar  
    16     7     9 ar  
    17     8    10 ar  
    18     8    21 1   
    19     9    11 ar  
    20     9    22 1   
    21    10    12 ar  
    22    10    23 1   
    23    11    12 ar  
    24    11    24 1   
    25    12    25 1   
@<TRIPOS>SUBSTRUCTURE
     1 PHC         1 TEMP              0 ****  ****    0 ROOT
