@<TRIPOS>MOLECULE
PHC
   25    25     1     0     0
SMALL
No Charge or Current Charge


@<TRIPOS>ATOM
      1 N            0.0530     0.0780     1.6890 n          1 PHC      -0.485800
      2 C           -0.7860     0.6040     2.6880 c          1 PHC       0.668900
      3 O           -1.2310    -0.0780     3.6050 o          1 PHC      -0.601100
      4 CA           0.4330    -1.3540     1.6970 c3         1 PHC       0.078300
      5 CB           0.5340     0.9430     0.5910 c3         1 PHC       0.166000
      6 CG2          2.0130     1.3410     0.7950 c3         1 PHC      -0.106100
      7 CG           0.2160     0.3570    -0.7930 ca         1 PHC      -0.103300
      8 CD1         -1.0940     0.4890    -1.2990 ca         1 PHC      -0.114500
      9 CD2          1.1810    -0.3240    -1.5720 ca         1 PHC      -0.114500
     10 CE1         -1.4340    -0.0370    -2.5580 ca         1 PHC      -0.129000
     11 CE2          0.8390    -0.8500    -2.8300 ca         1 PHC      -0.129000
     12 CZ          -0.4670    -0.7060    -3.3250 ca         1 PHC      -0.121000
     13 H           -1.0000     1.6820     2.5620 h5         1 PHC       0.002200
     14 HA1         -0.4260    -1.9650     1.3890 h1         1 PHC       0.045033
     15 HA2          1.2650    -1.5380     1.0050 h1         1 PHC       0.045033
     16 HA3          0.7460    -1.6550     2.7050 h1         1 PHC       0.045033
     17 HB          -0.0280     1.8860     0.6450 h1         1 PHC       0.056700
     18 HG21         2.6640     0.4610     0.8430 hc         1 PHC       0.045033
     19 HG22         2.3550     1.9850    -0.0240 hc         1 PHC       0.045033
     20 HG23         2.1290     1.8960     1.7330 hc         1 PHC       0.045033
     21 HD1         -1.8540     1.0020    -0.7120 ha         1 PHC       0.131500
     22 HD2          2.1970    -0.4570    -1.2100 ha         1 PHC       0.131500
     23 HE1         -2.4480     0.0730    -2.9370 ha         1 PHC       0.133000
     24 HE2          1.5890    -1.3720    -3.4220 ha         1 PHC       0.133000
     25 HZ          -0.7300    -1.1140    -4.2990 ha         1 PHC       0.132000
@<TRIPOS>BOND
     1     1     2 1   
     2     1     4 1   
     3     1     5 1   
     4     2     3 2   
     5     2    13 1   
     6     4    14 1   
     7     4    15 1   
     8     4    16 1   
     9     5     6 1   
    10     5     7 1   
    11     5    17 1   
    12     6    18 1   
    13     6    19 1   
    14     6    20 1   
    15     7     8 ar  
    16     7     9 ar  
    17     8    10 ar  
    18     8    21 1   
    19     9    11 ar  
    20     9    22 1   
    21    10    12 ar  
    22    10    23 1   
    23    11    12 ar  
    24    11    24 1   
    25    12    25 1   
@<TRIPOS>SUBSTRUCTURE
     1 PHC         1 TEMP              0 ****  ****    0 ROOT
