@<TRIPOS>MOLECULE
PHD
   18    17     1     0     0
SMALL
No Charge or Current Charge


@<TRIPOS>ATOM
      1 N            8.1790    34.3150     0.4100 n8         1 PHD      -0.895800
      2 CA           9.3250    34.9070    -0.3800 c3         1 PHD       0.018500
      3 C            9.3480    36.4940    -0.5570 c          1 PHD       0.940600
      4 O            8.3730    37.0530    -1.0540 o          1 PHD      -0.847800
      5 CB           9.4180    34.1680    -1.7410 c3         1 PHD      -0.174400
      6 CG          10.7320    34.5170    -2.4650 c          1 PHD       0.725100
      7 OD1         11.7070    33.6380    -2.1550 os         1 PHD      -0.515500
      8 OD2         10.8470    35.4940    -3.1960 o          1 PHD      -0.631000
      9 P           13.1060    33.5510    -2.9190 p5         1 PHD       1.298900
     10 OP1         13.6600    32.1850    -2.7020 o          1 PHD      -0.913167
     11 OP2         12.9470    33.7520    -4.3860 o          1 PHD      -0.913167
     12 OP3         14.0560    34.5460    -2.3500 o          1 PHD      -0.913167
     13 OXT         10.2850    37.1230    -0.0740 o          1 PHD      -0.847800
     14 H2           8.2160    33.2940     0.3410 hn         1 PHD       0.296800
     15 H            7.2980    34.5760    -0.0430 hn         1 PHD       0.296800
     16 HA          10.2420    34.6640     0.1750 h1         1 PHD       0.072700
     17 HB2          9.4000    33.0900    -1.5300 hc         1 PHD       0.000700
     18 HB3          8.5600    34.4470    -2.3640 hc         1 PHD       0.000700
@<TRIPOS>BOND
     1     1     2 1   
     2     1    14 1   
     3     1    15 1   
     4     2     3 1   
     5     2     5 1   
     6     2    16 1   
     7     3     4 1   
     8     3    13 1   
     9     5     6 1   
    10     5    17 1   
    11     5    18 1   
    12     6     7 1   
    13     6     8 2   
    14     7     9 1   
    15     9    10 1   
    16     9    11 1   
    17     9    12 1   
@<TRIPOS>SUBSTRUCTURE
     1 PHD         1 TEMP              0 ****  ****    0 ROOT
