@<TRIPOS>MOLECULE
PHD
   18    17     1     0     0
SMALL
bcc


@<TRIPOS>ATOM
      1 N            8.1760    34.4030     0.3890 n8         1 PHD      -0.895800
      2 CA           9.3690    34.7410    -0.3700 c3         1 PHD       0.018500
      3 C            9.5340    36.2770    -0.4400 c          1 PHD       0.940600
      4 O            8.4890    36.9320    -0.6310 o          1 PHD      -0.847800
      5 CB           9.3420    34.1720    -1.8060 c3         1 PHD      -0.174400
      6 CG          10.6150    34.4470    -2.5810 c          1 PHD       0.725100
      7 OD1         11.5980    33.6840    -2.2070 os         1 PHD      -0.515500
      8 OD2         10.6620    35.3040    -3.4450 o          1 PHD      -0.631000
      9 P           13.2780    33.7090    -2.8990 p5         1 PHD       1.298900
     10 OP1         13.8410    32.5500    -2.1020 o          1 PHD      -0.913167
     11 OP2         13.0560    33.4480    -4.3740 o          1 PHD      -0.913167
     12 OP3         13.7820    35.0850    -2.5180 o          1 PHD      -0.913167
     13 OXT         10.6920    36.7240    -0.3400 o          1 PHD      -0.847800
     14 H2           7.9660    33.4170     0.2810 hn         1 PHD       0.296800
     15 H            7.3950    34.9080    -0.0110 hn         1 PHD       0.296800
     16 HA          10.2340    34.3160     0.1460 h1         1 PHD       0.072700
     17 HB2          9.1780    33.0920    -1.7450 hc         1 PHD       0.000700
     18 HB3          8.4920    34.6060    -2.3370 hc         1 PHD       0.000700
@<TRIPOS>BOND
     1     1     2 1   
     2     1    14 1   
     3     1    15 1   
     4     2     3 1   
     5     2     5 1   
     6     2    16 1   
     7     3     4 1   
     8     3    13 1   
     9     5     6 1   
    10     5    17 1   
    11     5    18 1   
    12     6     7 1   
    13     6     8 2   
    14     7     9 1   
    15     9    10 1   
    16     9    11 1   
    17     9    12 1   
@<TRIPOS>SUBSTRUCTURE
     1 PHD         1 TEMP              0 ****  ****    0 ROOT
