@<TRIPOS>MOLECULE
PHH
   16    17     1     0     0
SMALL
bcc


@<TRIPOS>ATOM
      1 C1          -1.2300     0.0220    -0.8900 ca         1 PHH       0.034400
      2 C2          -1.4050     0.0170     0.4760 ca         1 PHH      -0.087300
      3 C3          -2.6560     0.0140     1.2840 c5         1 PHH       0.184700
      4 O4          -2.1920     0.0080     2.6320 os         1 PHH      -0.395900
      5 C5          -0.8550     0.0070     2.7120 c          1 PHH       0.756200
      6 C6          -0.3280     0.0120     1.3330 ca         1 PHH      -0.181600
      7 C7           0.9730     0.0130     0.8610 ca         1 PHH       0.097400
      8 CL7          2.3020     0.0070     1.9310 cl         1 PHH      -0.016400
      9 C8           1.1690     0.0190    -0.5170 ca         1 PHH       0.011400
     10 CL8          2.7540     0.0200    -1.1530 cl         1 PHH      -0.031400
     11 C9           0.0700     0.0230    -1.3890 ca         1 PHH       0.053400
     12 CL9          0.3270     0.0300    -3.0740 cl         1 PHH      -0.028400
     13 CL10        -2.5910     0.0280    -1.9260 cl         1 PHH      -0.047400
     14 O11         -0.2710     0.0020     3.7560 o          1 PHH      -0.526500
     15 H31         -3.2680    -0.8730     1.1090 h1         1 PHH       0.088700
     16 H32         -3.2680     0.9020     1.1160 h1         1 PHH       0.088700
@<TRIPOS>BOND
     1     1     2 ar  
     2     1    11 ar  
     3     1    13 1   
     4     2     3 1   
     5     2     6 ar  
     6     3     4 1   
     7     3    15 1   
     8     3    16 1   
     9     4     5 1   
    10     5     6 1   
    11     5    14 2   
    12     6     7 ar  
    13     7     8 1   
    14     7     9 ar  
    15     9    10 1   
    16     9    11 ar  
    17    11    12 1   
@<TRIPOS>SUBSTRUCTURE
     1 PHH         1 TEMP              0 ****  ****    0 ROOT
