@<TRIPOS>MOLECULE
PHH
   16    17     1     0     0
SMALL
No Charge or Current Charge


@<TRIPOS>ATOM
      1 C1          -1.2400     0.0220    -0.8970 ca         1 PHH       0.126000
      2 C2          -1.4160     0.0160     0.4940 ca         1 PHH      -0.087300
      3 C3          -2.6940     0.0140     1.2940 c5         1 PHH       0.207900
      4 O4          -2.2410     0.0080     2.6890 os         1 PHH      -0.419100
      5 C5          -0.8620     0.0060     2.7370 c          1 PHH       0.680700
      6 C6          -0.3410     0.0120     1.3500 ca         1 PHH      -0.181600
      7 C7           0.9820     0.0130     0.8750 ca         1 PHH       0.189000
      8 Cl7          2.3540     0.0070     1.9880 cl         1 PHH      -0.108000
      9 C8           1.1880     0.0190    -0.5260 ca         1 PHH       0.103000
     10 Cl8          2.8350     0.0200    -1.1750 cl         1 PHH      -0.123000
     11 C9           0.0780     0.0230    -1.4110 ca         1 PHH       0.145000
     12 Cl9          0.3390     0.0300    -3.1610 cl         1 PHH      -0.120000
     13 Cl10        -2.6480     0.0280    -1.9620 cl         1 PHH      -0.139000
     14 O11         -0.2050     0.0020     3.7670 o          1 PHH      -0.451000
     15 H31         -3.3000    -0.8800     1.0960 h1         1 PHH       0.088700
     16 H32         -3.2990     0.9110     1.1030 h1         1 PHH       0.088700
@<TRIPOS>BOND
     1     1     2 ar  
     2     1    11 ar  
     3     1    13 1   
     4     2     3 1   
     5     2     6 ar  
     6     3     4 1   
     7     3    15 1   
     8     3    16 1   
     9     4     5 1   
    10     5     6 1   
    11     5    14 2   
    12     6     7 ar  
    13     7     8 1   
    14     7     9 ar  
    15     9    10 1   
    16     9    11 ar  
    17    11    12 1   
@<TRIPOS>SUBSTRUCTURE
     1 PHH         1 TEMP              0 ****  ****    0 ROOT
