@<TRIPOS>MOLECULE
PHI
   22    22     1     0     0
SMALL
No Charge or Current Charge


@<TRIPOS>ATOM
      1 N           89.2670    12.8650    33.5790 n8         1 PHI      -0.898800
      2 CA          88.8290    14.3110    33.6390 c3         1 PHI       0.027500
      3 CB          88.6240    14.7480    35.1170 c3         1 PHI      -0.023100
      4 CG          87.6070    13.8940    35.8710 ca         1 PHI      -0.021300
      5 CD1         88.0280    12.9960    36.8730 ca         1 PHI      -0.133500
      6 CD2         86.2330    14.0050    35.5760 ca         1 PHI      -0.133500
      7 CE1         87.0870    12.2150    37.5670 ca         1 PHI      -0.110000
      8 CE2         85.2910    13.2240    36.2710 ca         1 PHI      -0.110000
      9 CZ          85.7210    12.3300    37.2650 ca         1 PHI       0.044900
     10 I           84.2780    11.1330    38.3300 i          1 PHI      -0.235900
     11 C           89.7000    15.3680    32.8180 c          1 PHI       0.930600
     12 O           89.4760    15.4970    31.6170 o          1 PHI      -0.831300
     13 OXT         90.5600    16.0290    33.3940 o          1 PHI      -0.831300
     14 H           89.2060    12.5350    32.6090 hn         1 PHI       0.332300
     15 H2          88.5910    12.2910    34.0910 hn         1 PHI       0.332300
     16 HA          87.8330    14.3270    33.1750 h1         1 PHI      -0.001300
     17 HB2         89.5920    14.7360    35.6340 hc         1 PHI       0.061200
     18 HB3         88.2910    15.7930    35.1300 hc         1 PHI       0.061200
     19 HD1         89.0850    12.9000    37.1110 ha         1 PHI       0.140500
     20 HD2         85.8940    14.6970    34.8080 ha         1 PHI       0.140500
     21 HE1         87.4160    11.5220    38.3380 ha         1 PHI       0.129500
     22 HE2         84.2320    13.3120    36.0400 ha         1 PHI       0.129500
@<TRIPOS>BOND
     1     1     2 1   
     2     1    14 1   
     3     1    15 1   
     4     2     3 1   
     5     2    11 1   
     6     2    16 1   
     7     3     4 1   
     8     3    17 1   
     9     3    18 1   
    10     4     5 ar  
    11     4     6 ar  
    12     5     7 ar  
    13     5    19 1   
    14     6     8 ar  
    15     6    20 1   
    16     7     9 ar  
    17     7    21 1   
    18     8     9 ar  
    19     8    22 1   
    20     9    10 1   
    21    11    12 1   
    22    11    13 1   
@<TRIPOS>SUBSTRUCTURE
     1 PHI         1 TEMP              0 ****  ****    0 ROOT
