@<TRIPOS>MOLECULE
PHI
   22    22     1     0     0
SMALL
bcc


@<TRIPOS>ATOM
      1 N           89.2160    12.9130    33.6310 n8         1 PHI      -0.898800
      2 CA          88.7330    14.2830    33.6660 c3         1 PHI       0.027500
      3 CB          88.5920    14.7550    35.1190 c3         1 PHI      -0.023100
      4 CG          87.6100    13.9240    35.8930 ca         1 PHI      -0.021300
      5 CD1         88.0230    12.8920    36.7310 ca         1 PHI      -0.133500
      6 CD2         86.2400    14.1480    35.7590 ca         1 PHI      -0.133500
      7 CE1         87.1070    12.1060    37.4200 ca         1 PHI      -0.110000
      8 CE2         85.3070    13.3730    36.4330 ca         1 PHI      -0.110000
      9 CZ          85.7520    12.3530    37.2630 ca         1 PHI       0.044900
     10 I           84.3510    11.1730    38.3010 i          1 PHI      -0.235900
     11 C           89.6520    15.2260    32.8430 c          1 PHI       0.930600
     12 O           90.4310    14.6880    32.0320 o          1 PHI      -0.831300
     13 OXT         89.4990    16.4480    33.0320 o          1 PHI      -0.831300
     14 H           89.6290    12.7520    32.7210 hn         1 PHI       0.332300
     15 H2          88.4460    12.2650    33.7290 hn         1 PHI       0.332300
     16 HA          87.7350    14.3810    33.2030 h1         1 PHI      -0.001300
     17 HB2         89.5720    14.7190    35.6020 hc         1 PHI       0.061200
     18 HB3         88.2660    15.7950    35.1210 hc         1 PHI       0.061200
     19 HD1         89.0800    12.6960    36.8580 ha         1 PHI       0.140500
     20 HD2         85.8880    14.9480    35.1180 ha         1 PHI       0.140500
     21 HE1         87.4600    11.3140    38.0670 ha         1 PHI       0.129500
     22 HE2         84.2520    13.5740    36.3090 ha         1 PHI       0.129500
@<TRIPOS>BOND
     1     1     2 1   
     2     1    14 1   
     3     1    15 1   
     4     2     3 1   
     5     2    11 1   
     6     2    16 1   
     7     3     4 1   
     8     3    17 1   
     9     3    18 1   
    10     4     5 ar  
    11     4     6 ar  
    12     5     7 ar  
    13     5    19 1   
    14     6     8 ar  
    15     6    20 1   
    16     7     9 ar  
    17     7    21 1   
    18     8     9 ar  
    19     8    22 1   
    20     9    10 1   
    21    11    12 1   
    22    11    13 1   
@<TRIPOS>SUBSTRUCTURE
     1 PHI         1 TEMP              0 ****  ****    0 ROOT
