@<TRIPOS>MOLECULE
PHJ
   19    19     1     0     0
SMALL
bcc


@<TRIPOS>ATOM
      1 N            0.5880     0.1020     0.6040 ns         1 PHJ      -0.477100
      2 C           -0.2110     0.1450     1.7000 c          1 PHJ       0.771100
      3 OXT          0.5850     0.1810     2.7880 os         1 PHJ      -0.299400
      4 O           -1.4150     0.1530     1.7160 o          1 PHJ      -0.525000
      5 C1           0.2130     0.0620    -0.7410 ca         1 PHJ       0.088600
      6 C2          -1.1040     0.1190    -1.1970 ca         1 PHJ      -0.171500
      7 C3          -1.3600     0.0770    -2.5620 ca         1 PHJ      -0.099000
      8 C4          -0.3320    -0.0200    -3.4870 ca         1 PHJ      -0.156000
      9 C5           0.9790    -0.0760    -3.0300 ca         1 PHJ      -0.099000
     10 C6           1.2500    -0.0360    -1.6730 ca         1 PHJ      -0.171500
     11 N2          -0.1210     0.2240     4.0060 n8         1 PHJ      -0.576300
     12 H            1.5830     0.0840     0.7760 hn         1 PHJ       0.327500
     13 H2          -1.9290     0.1950    -0.5070 ha         1 PHJ       0.146500
     14 H3          -2.3880     0.1230    -2.8990 ha         1 PHJ       0.131500
     15 H4          -0.5450    -0.0510    -4.5470 ha         1 PHJ       0.134000
     16 H5           1.7990    -0.1530    -3.7310 ha         1 PHJ       0.131500
     17 H6           2.2770    -0.0820    -1.3310 ha         1 PHJ       0.146500
     18 H21          0.2590    -0.5570     4.5290 hn         1 PHJ       0.347800
     19 H22          0.2330     1.0600     4.4600 hn         1 PHJ       0.347800
@<TRIPOS>BOND
     1     1     2 1   
     2     1     5 1   
     3     1    12 1   
     4     2     3 1   
     5     2     4 2   
     6     3    11 1   
     7     5     6 ar  
     8     5    10 ar  
     9     6     7 ar  
    10     6    13 1   
    11     7     8 ar  
    12     7    14 1   
    13     8     9 ar  
    14     8    15 1   
    15     9    10 ar  
    16     9    16 1   
    17    10    17 1   
    18    11    18 1   
    19    11    19 1   
@<TRIPOS>SUBSTRUCTURE
     1 PHJ         1 TEMP              0 ****  ****    0 ROOT
