@<TRIPOS>MOLECULE
PHJ
   19    19     1     0     0
SMALL
No Charge or Current Charge


@<TRIPOS>ATOM
      1 N            0.5200     0.0890     0.5980 ns         1 PHJ      -0.151000
      2 C           -0.2630     0.1670     1.7370 c          1 PHJ       0.655100
      3 OXT          0.5640     0.1680     2.8540 os         1 PHJ      -0.299400
      4 O           -1.4860     0.2270     1.7770 o          1 PHJ      -0.476000
      5 C1           0.1930     0.0550    -0.7850 ca         1 PHJ      -0.004000
      6 C2          -1.1320     0.0990    -1.2750 ca         1 PHJ      -0.153500
      7 C3          -1.3810     0.0610    -2.6580 ca         1 PHJ      -0.081000
      8 C4          -0.3120    -0.0220    -3.5650 ca         1 PHJ      -0.138000
      9 C5           1.0080    -0.0660    -3.0890 ca         1 PHJ      -0.081000
     10 C6           1.2560    -0.0280    -1.7060 ca         1 PHJ      -0.153500
     11 N2          -0.0490     0.2460     4.2160 n8         1 PHJ      -0.686700
     12 H            1.5120     0.0490     0.7880 hn         1 PHJ       0.161000
     13 H2          -1.9820     0.1630    -0.6030 ha         1 PHJ       0.128500
     14 H3          -2.4040     0.0950    -3.0270 ha         1 PHJ       0.113500
     15 H4          -0.5060    -0.0510    -4.6350 ha         1 PHJ       0.116000
     16 H5           1.8370    -0.1300    -3.7900 ha         1 PHJ       0.113500
     17 H6           2.2830    -0.0630    -1.3490 ha         1 PHJ       0.128500
     18 H21          0.3130    -0.5740     4.7230 hn         1 PHJ       0.403000
     19 H22          0.3900     1.0630     4.6640 hn         1 PHJ       0.403000
@<TRIPOS>BOND
     1     1     2 1   
     2     1     5 1   
     3     1    12 1   
     4     2     3 1   
     5     2     4 2   
     6     3    11 1   
     7     5     6 ar  
     8     5    10 ar  
     9     6     7 ar  
    10     6    13 1   
    11     7     8 ar  
    12     7    14 1   
    13     8     9 ar  
    14     8    15 1   
    15     9    10 ar  
    16     9    16 1   
    17    10    17 1   
    18    11    18 1   
    19    11    19 1   
@<TRIPOS>SUBSTRUCTURE
     1 PHJ         1 TEMP              0 ****  ****    0 ROOT
