@<TRIPOS>MOLECULE
PHK
   27    27     1     0     0
SMALL
bcc


@<TRIPOS>ATOM
      1 CB          -0.5950     0.0640    -0.9510 c3         1 PHK      -0.021100
      2 CG          -2.0150    -0.0520    -0.4750 ca         1 PHK      -0.068300
      3 CD1         -2.7870     1.0780    -0.2140 ca         1 PHK      -0.117000
      4 CD2         -2.5870    -1.3050    -0.2690 ca         1 PHK      -0.117000
      5 CE1         -4.0940     0.9610     0.2400 ca         1 PHK      -0.129000
      6 CE2         -3.8930    -1.4290     0.1890 ca         1 PHK      -0.129000
      7 CZ          -4.6510    -0.2950     0.4460 ca         1 PHK      -0.128000
      8 O            2.2320     1.0080    -1.1320 oh         1 PHK      -0.572800
      9 C1           2.8370    -0.4250     0.7320 c3         1 PHK       0.006000
     10 CL           4.4970    -0.6540     0.0830 cl         1 PHK      -0.186400
     11 C            1.8510    -0.1160    -0.3820 c3         1 PHK       0.094100
     12 N            0.2100     1.1390     1.0800 n8         1 PHK      -0.907800
     13 CA           0.4230     0.0120     0.1930 c3         1 PHK       0.145500
     14 H6          -0.4610     0.9940    -1.5100 hc         1 PHK       0.054200
     15 H7          -0.3800    -0.7500    -1.6490 hc         1 PHK       0.054200
     16 H1          -2.3640     2.0620    -0.3760 ha         1 PHK       0.125000
     17 H5          -2.0060    -2.1980    -0.4740 ha         1 PHK       0.125000
     18 H2          -4.6780     1.8520     0.4340 ha         1 PHK       0.128500
     19 H4          -4.3180    -2.4130     0.3400 ha         1 PHK       0.128500
     20 H3          -5.6710    -0.3890     0.7980 ha         1 PHK       0.129000
     21 H9           2.2930     1.7680    -0.5430 ho         1 PHK       0.396000
     22 H11          2.9000     0.3780     1.4660 h1         1 PHK       0.065700
     23 H12          2.5630    -1.3460     1.2440 h1         1 PHK       0.065700
     24 H            1.8580    -0.9610    -1.0770 h1         1 PHK       0.093700
     25 H13          0.8420     1.1370     1.8700 hn         1 PHK       0.348300
     26 H14          0.3210     2.0220     0.5980 hn         1 PHK       0.348300
     27 H8           0.2330    -0.9020     0.7690 h1         1 PHK       0.068700
@<TRIPOS>BOND
     1     1     2 1   
     2     1    13 1   
     3     1    14 1   
     4     1    15 1   
     5     2     3 ar  
     6     2     4 ar  
     7     3     5 ar  
     8     3    16 1   
     9     4     6 ar  
    10     4    17 1   
    11     5     7 ar  
    12     5    18 1   
    13     6     7 ar  
    14     6    19 1   
    15     7    20 1   
    16     8    11 1   
    17     8    21 1   
    18     9    10 1   
    19     9    11 1   
    20     9    22 1   
    21     9    23 1   
    22    11    13 1   
    23    11    24 1   
    24    12    13 1   
    25    12    25 1   
    26    12    26 1   
    27    13    27 1   
@<TRIPOS>SUBSTRUCTURE
     1 PHK         1 TEMP              0 ****  ****    0 ROOT
