@<TRIPOS>MOLECULE
PHK
   27    27     1     0     0
SMALL
No Charge or Current Charge


@<TRIPOS>ATOM
      1 CB          -0.6560     0.1900    -0.9150 c3         1 PHK      -0.021100
      2 CG          -2.1010    -0.0040    -0.4550 ca         1 PHK      -0.068300
      3 CD1         -2.9860     1.0910    -0.3900 ca         1 PHK      -0.099000
      4 CD2         -2.5660    -1.2890    -0.1090 ca         1 PHK      -0.099000
      5 CE1         -4.3180     0.9040     0.0220 ca         1 PHK      -0.111000
      6 CE2         -3.8980    -1.4750     0.3030 ca         1 PHK      -0.111000
      7 CZ          -4.7740    -0.3790     0.3690 ca         1 PHK      -0.110000
      8 O            2.2360     1.3040    -0.8440 oh         1 PHK      -0.635000
      9 C1           2.8860    -0.4380     0.7430 c3         1 PHK       0.082600
     10 Cl           4.5680    -0.5440     0.0500 cl         1 PHK      -0.263000
     11 C            1.8560     0.0100    -0.3250 c3         1 PHK       0.117300
     12 N            0.2160     1.1400     1.2280 n8         1 PHK      -1.018200
     13 CA           0.3900     0.0530     0.2260 c3         1 PHK       0.145500
     14 H6          -0.5380     1.1660    -1.4020 hc         1 PHK       0.054200
     15 H7          -0.4320    -0.5550    -1.6890 hc         1 PHK       0.054200
     16 H1          -2.6420     2.0880    -0.6550 ha         1 PHK       0.107000
     17 H5          -1.8970    -2.1440    -0.1600 ha         1 PHK       0.107000
     18 H2          -4.9950     1.7540     0.0720 ha         1 PHK       0.110500
     19 H4          -4.2500    -2.4690     0.5690 ha         1 PHK       0.110500
     20 H3          -5.8040    -0.5230     0.6870 ha         1 PHK       0.111000
     21 H9           3.1870     1.2470    -1.0850 ho         1 PHK       0.435000
     22 H11          2.9170     0.2710     1.5790 h1         1 PHK       0.065700
     23 H12          2.6260    -1.4320     1.1270 h1         1 PHK       0.065700
     24 H            1.8860    -0.7400    -1.1290 h1         1 PHK       0.093700
     25 H13          0.7950     0.9400     2.0500 hn         1 PHK       0.403500
     26 H14          0.6580     1.9790     0.8320 hn         1 PHK       0.403500
     27 H8           0.1930    -0.9060     0.7290 h1         1 PHK       0.068700
@<TRIPOS>BOND
     1     1     2 1   
     2     1    13 1   
     3     1    14 1   
     4     1    15 1   
     5     2     3 ar  
     6     2     4 ar  
     7     3     5 ar  
     8     3    16 1   
     9     4     6 ar  
    10     4    17 1   
    11     5     7 ar  
    12     5    18 1   
    13     6     7 ar  
    14     6    19 1   
    15     7    20 1   
    16     8    11 1   
    17     8    21 1   
    18     9    10 1   
    19     9    11 1   
    20     9    22 1   
    21     9    23 1   
    22    11    13 1   
    23    11    24 1   
    24    12    13 1   
    25    12    25 1   
    26    12    26 1   
    27    13    27 1   
@<TRIPOS>SUBSTRUCTURE
     1 PHK         1 TEMP              0 ****  ****    0 ROOT
