@<TRIPOS>MOLECULE
PHL
   24    24     1     0     0
SMALL
No Charge or Current Charge


@<TRIPOS>ATOM
      1 N          -10.9860    16.6120     8.6250 n8         1 PHL      -0.875800
      2 CA         -11.3940    17.2090     9.9200 c3         1 PHL       0.122500
      3 C          -10.9530    18.7020     9.9920 c3         1 PHL       0.097400
      4 O          -11.5210    19.3630    11.1330 oh         1 PHL      -0.586800
      5 CB         -10.8630    16.3590    11.1100 c3         1 PHL      -0.023100
      6 CG         -11.3750    14.9190    11.1180 ca         1 PHL      -0.064300
      7 CD1        -12.7290    14.6510    11.4050 ca         1 PHL      -0.117000
      8 CD2        -10.4990    13.8450    10.8610 ca         1 PHL      -0.117000
      9 CE1        -13.2020    13.3270    11.4270 ca         1 PHL      -0.128500
     10 CE2        -10.9720    12.5210    10.8830 ca         1 PHL      -0.128500
     11 CZ         -12.3240    12.2610    11.1660 ca         1 PHL      -0.129000
     12 H          -11.3020    17.2130     7.8580 hn         1 PHL       0.337800
     13 H2          -9.9640    16.6220     8.5540 hn         1 PHL       0.337800
     14 HA         -12.4940    17.1910     9.9550 h1         1 PHL       0.077700
     15 HC1         -9.8560    18.7590    10.0230 h1         1 PHL       0.037700
     16 HC2        -11.2830    19.2110     9.0760 h1         1 PHL       0.037700
     17 HO         -11.0430    19.0410    11.9270 ho         1 PHL       0.402000
     18 HB2         -9.7660    16.3750    11.0990 hc         1 PHL       0.042200
     19 HB3        -11.1580    16.8370    12.0520 hc         1 PHL       0.042200
     20 HD1        -13.4150    15.4700    11.6120 ha         1 PHL       0.126000
     21 HD2         -9.4510    14.0360    10.6410 ha         1 PHL       0.126000
     22 HE1        -14.2490    13.1270    11.6480 ha         1 PHL       0.128000
     23 HE2        -10.2910    11.6970    10.6810 ha         1 PHL       0.128000
     24 HZ         -12.6900    11.2370    11.1830 ha         1 PHL       0.128000
@<TRIPOS>BOND
     1     1     2 1   
     2     1    12 1   
     3     1    13 1   
     4     2     3 1   
     5     2     5 1   
     6     2    14 1   
     7     3     4 1   
     8     3    15 1   
     9     3    16 1   
    10     4    17 1   
    11     5     6 1   
    12     5    18 1   
    13     5    19 1   
    14     6     7 ar  
    15     6     8 ar  
    16     7     9 ar  
    17     7    20 1   
    18     8    10 ar  
    19     8    21 1   
    20     9    11 ar  
    21     9    22 1   
    22    10    11 ar  
    23    10    23 1   
    24    11    24 1   
@<TRIPOS>SUBSTRUCTURE
     1 PHL         1 TEMP              0 ****  ****    0 ROOT
