@<TRIPOS>MOLECULE
PHL
   24    24     1     0     0
SMALL
bcc


@<TRIPOS>ATOM
      1 N          -10.7900    16.5320     8.7080 n8         1 PHL      -0.875800
      2 CA         -11.3500    17.1500     9.8970 c3         1 PHL       0.122500
      3 C          -10.9850    18.6360     9.9960 c3         1 PHL       0.097400
      4 O          -11.6240    19.3250    11.0460 oh         1 PHL      -0.586800
      5 CB         -10.9000    16.3760    11.1400 c3         1 PHL      -0.023100
      6 CG         -11.3840    14.9540    11.1500 ca         1 PHL      -0.064300
      7 CD1        -12.6870    14.6610    11.5490 ca         1 PHL      -0.117000
      8 CD2        -10.5670    13.9040    10.7400 ca         1 PHL      -0.117000
      9 CE1        -13.1640    13.3570    11.5350 ca         1 PHL      -0.128500
     10 CE2        -11.0360    12.5970    10.7280 ca         1 PHL      -0.128500
     11 CZ         -12.3380    12.3190    11.1230 ca         1 PHL      -0.129000
     12 H          -11.1120    17.0220     7.8810 hn         1 PHL       0.337800
     13 H2          -9.7800    16.6290     8.7160 hn         1 PHL       0.337800
     14 HA         -12.4420    17.0750     9.8260 h1         1 PHL       0.077700
     15 HC1         -9.8900    18.7280    10.0530 h1         1 PHL       0.037700
     16 HC2        -11.2950    19.1260     9.0690 h1         1 PHL       0.037700
     17 HO         -11.2010    19.0880    11.8760 ho         1 PHL       0.402000
     18 HB2         -9.8070    16.4040    11.1960 hc         1 PHL       0.042200
     19 HB3        -11.2730    16.8810    12.0350 hc         1 PHL       0.042200
     20 HD1        -13.3370    15.4640    11.8780 ha         1 PHL       0.126000
     21 HD2         -9.5490    14.1110    10.4320 ha         1 PHL       0.126000
     22 HE1        -14.1790    13.1510    11.8510 ha         1 PHL       0.128000
     23 HE2        -10.3840    11.7940    10.4080 ha         1 PHL       0.128000
     24 HZ         -12.7050    11.3000    11.1140 ha         1 PHL       0.128000
@<TRIPOS>BOND
     1     1     2 1   
     2     1    12 1   
     3     1    13 1   
     4     2     3 1   
     5     2     5 1   
     6     2    14 1   
     7     3     4 1   
     8     3    15 1   
     9     3    16 1   
    10     4    17 1   
    11     5     6 1   
    12     5    18 1   
    13     5    19 1   
    14     6     7 ar  
    15     6     8 ar  
    16     7     9 ar  
    17     7    20 1   
    18     8    10 ar  
    19     8    21 1   
    20     9    11 ar  
    21     9    22 1   
    22    10    11 ar  
    23    10    23 1   
    24    11    24 1   
@<TRIPOS>SUBSTRUCTURE
     1 PHL         1 TEMP              0 ****  ****    0 ROOT
