@<TRIPOS>MOLECULE
PHM
   25    25     1     0     0
SMALL
No Charge or Current Charge


@<TRIPOS>ATOM
      1 C1           2.5800     0.9820     0.0430 c3         1 PHM       0.000600
      2 N1          -0.0320    -1.8030    -1.0490 n8         1 PHM      -0.982200
      3 C2           0.4510    -0.4840    -0.5000 c3         1 PHM       0.074500
      4 C3          -0.4110    -0.0440     0.7170 c3         1 PHM      -0.022100
      5 C4          -1.8950     0.1250     0.3950 ca         1 PHM      -0.069300
      6 C5          -2.8470    -0.7790     0.9090 ca         1 PHM      -0.098000
      7 C6          -2.3280     1.2020    -0.4040 ca         1 PHM      -0.098000
      8 C7          -4.2130    -0.6110     0.6210 ca         1 PHM      -0.108500
      9 C8          -3.6940     1.3690    -0.6920 ca         1 PHM      -0.108500
     10 C9          -4.6370     0.4620    -0.1800 ca         1 PHM      -0.108000
     11 C10          1.9840    -0.4240    -0.1580 c          1 PHM       0.519100
     12 O1           2.6700    -1.4400    -0.0750 o          1 PHM      -0.486100
     13 Cl1          4.3780     1.0860    -0.2690 cl         1 PHM      -0.229000
     14 HM2          2.0840     1.6810    -0.6420 h1         1 PHM       0.084200
     15 HM3          2.3930     1.3010     1.0750 h1         1 PHM       0.084200
     16 H2           0.1940    -2.5500    -0.3800 hn         1 PHM       0.409000
     17 HA           0.3000     0.2660    -1.2890 h1         1 PHM       0.075700
     18 HB2         -0.2740    -0.7670     1.5320 hc         1 PHM       0.053200
     19 HB3         -0.0310     0.9100     1.1030 hc         1 PHM       0.053200
     20 HD1         -2.5300    -1.6130     1.5300 ha         1 PHM       0.107500
     21 HD2         -1.6060     1.9120    -0.8020 ha         1 PHM       0.107500
     22 HE1         -4.9430    -1.3140     1.0190 ha         1 PHM       0.111500
     23 HE2         -4.0210     2.2020    -1.3110 ha         1 PHM       0.111500
     24 HZ          -5.6940     0.5920    -0.4030 ha         1 PHM       0.112000
     25 H            0.5280    -2.0580    -1.8730 hn         1 PHM       0.409000
@<TRIPOS>BOND
     1     1    11 1   
     2     1    13 1   
     3     1    14 1   
     4     1    15 1   
     5     2     3 1   
     6     2    16 1   
     7     2    25 1   
     8     3     4 1   
     9     3    11 1   
    10     3    17 1   
    11     4     5 1   
    12     4    18 1   
    13     4    19 1   
    14     5     6 ar  
    15     5     7 ar  
    16     6     8 ar  
    17     6    20 1   
    18     7     9 ar  
    19     7    21 1   
    20     8    10 ar  
    21     8    22 1   
    22     9    10 ar  
    23     9    23 1   
    24    10    24 1   
    25    11    12 2   
@<TRIPOS>SUBSTRUCTURE
     1 PHM         1 TEMP              0 ****  ****    0 ROOT
