@<TRIPOS>MOLECULE
PHM
   25    25     1     0     0
SMALL
abcg2


@<TRIPOS>ATOM
      1 C1           2.5620     0.9230    -0.2920 c3         1 PHM       0.000600
      2 N1          -0.0400    -1.7220    -0.9670 n8         1 PHM      -0.982200
      3 C2           0.4110    -0.4440    -0.4780 c3         1 PHM       0.074500
      4 C3          -0.4020    -0.0250     0.7620 c3         1 PHM      -0.022100
      5 C4          -1.8620     0.1350     0.4510 ca         1 PHM      -0.069300
      6 C5          -2.7750    -0.8680     0.7620 ca         1 PHM      -0.098000
      7 C6          -2.3280     1.2910    -0.1700 ca         1 PHM      -0.098000
      8 C7          -4.1230    -0.7200     0.4650 ca         1 PHM      -0.108500
      9 C8          -3.6740     1.4420    -0.4740 ca         1 PHM      -0.108500
     10 C9          -4.5770     0.4350    -0.1560 ca         1 PHM      -0.108000
     11 C10          1.8870    -0.4100    -0.0860 c          1 PHM       0.519100
     12 O1           2.4580    -1.3730     0.3560 o          1 PHM      -0.486100
     13 CL1          4.2010     0.9700     0.3880 cl         1 PHM      -0.229000
     14 HM2          2.6240     1.1230    -1.3640 h1         1 PHM       0.084200
     15 HM3          1.9750     1.7270     0.1530 h1         1 PHM       0.084200
     16 H2           0.1500    -2.4450    -0.2840 hn         1 PHM       0.409000
     17 HA           0.2460     0.3060    -1.2600 h1         1 PHM       0.075700
     18 HB2         -0.2650    -0.7800     1.5410 hc         1 PHM       0.053200
     19 HB3         -0.0080     0.9130     1.1630 hc         1 PHM       0.053200
     20 HD1         -2.4280    -1.7730     1.2480 ha         1 PHM       0.107500
     21 HD2         -1.6310     2.0850    -0.4160 ha         1 PHM       0.107500
     22 HE1         -4.8200    -1.5090     0.7190 ha         1 PHM       0.111500
     23 HE2         -4.0190     2.3490    -0.9540 ha         1 PHM       0.111500
     24 HZ          -5.6280     0.5530    -0.3880 ha         1 PHM       0.112000
     25 H            0.4690    -1.9780    -1.8040 hn         1 PHM       0.409000
@<TRIPOS>BOND
     1     1    11 1   
     2     1    13 1   
     3     1    14 1   
     4     1    15 1   
     5     2     3 1   
     6     2    16 1   
     7     2    25 1   
     8     3     4 1   
     9     3    11 1   
    10     3    17 1   
    11     4     5 1   
    12     4    18 1   
    13     4    19 1   
    14     5     6 ar  
    15     5     7 ar  
    16     6     8 ar  
    17     6    20 1   
    18     7     9 ar  
    19     7    21 1   
    20     8    10 ar  
    21     8    22 1   
    22     9    10 ar  
    23     9    23 1   
    24    10    24 1   
    25    11    12 2   
@<TRIPOS>SUBSTRUCTURE
     1 PHM         1 TEMP              0 ****  ****    0 ROOT
