@<TRIPOS>MOLECULE
PHN
   22    24     1     0     0
SMALL
No Charge or Current Charge


@<TRIPOS>ATOM
      1 N1          -1.5690    -0.0010    -1.4560 nb         1 PHN      -0.624000
      2 C2          -1.5320     0.0100    -2.8070 ca         1 PHN       0.342900
      3 C3          -0.3360     0.0250    -3.5350 ca         1 PHN      -0.160000
      4 C4           0.8800     0.0290    -2.8400 ca         1 PHN      -0.067500
      5 C4A          0.8520     0.0170    -1.4330 ca         1 PHN      -0.081000
      6 C5           2.0660     0.0210    -0.7270 ca         1 PHN      -0.090000
      7 C6           2.0650     0.0100     0.6700 ca         1 PHN      -0.090000
      8 C6A          0.8500    -0.0050     1.3750 ca         1 PHN      -0.081000
      9 C7           0.8770    -0.0170     2.7820 ca         1 PHN      -0.067500
     10 C8          -0.3390    -0.0320     3.4750 ca         1 PHN      -0.160000
     11 C9          -1.5350    -0.0350     2.7460 ca         1 PHN       0.342900
     12 N10         -1.5710    -0.0250     1.3950 nb         1 PHN      -0.624000
     13 C10         -0.3980    -0.0100     0.6880 ca         1 PHN       0.296000
     14 C1A         -0.3980     0.0020    -0.7480 ca         1 PHN       0.296000
     15 H2          -2.4930     0.0060    -3.3190 h4         1 PHN       0.022100
     16 H3          -0.3580     0.0340    -4.6210 ha         1 PHN       0.125000
     17 H4           1.8230     0.0410    -3.3830 ha         1 PHN       0.119000
     18 H5           3.0130     0.0330    -1.2620 ha         1 PHN       0.117000
     19 H6           3.0120     0.0130     1.2060 ha         1 PHN       0.117000
     20 H7           1.8200    -0.0140     3.3260 ha         1 PHN       0.119000
     21 H8          -0.3620    -0.0410     4.5610 ha         1 PHN       0.125000
     22 H9          -2.4960    -0.0470     3.2570 h4         1 PHN       0.022100
@<TRIPOS>BOND
     1     1     2 ar  
     2     1    14 ar  
     3     2     3 ar  
     4     2    15 1   
     5     3     4 ar  
     6     3    16 1   
     7     4     5 ar  
     8     4    17 1   
     9     5     6 ar  
    10     5    14 ar  
    11     6     7 ar  
    12     6    18 1   
    13     7     8 ar  
    14     7    19 1   
    15     8     9 ar  
    16     8    13 ar  
    17     9    10 ar  
    18     9    20 1   
    19    10    11 ar  
    20    10    21 1   
    21    11    12 ar  
    22    11    22 1   
    23    12    13 ar  
    24    13    14 ar  
@<TRIPOS>SUBSTRUCTURE
     1 PHN         1 TEMP              0 ****  ****    0 ROOT
