@<TRIPOS>MOLECULE
PHN
   22    24     1     0     0
SMALL
bcc


@<TRIPOS>ATOM
      1 N1          -1.5330    -0.0010    -1.3990 nb         1 PHN      -0.624000
      2 C2          -1.5280     0.0090    -2.7120 ca         1 PHN       0.408200
      3 C3          -0.3600     0.0240    -3.4860 ca         1 PHN      -0.243300
      4 C4           0.8490     0.0280    -2.8390 ca         1 PHN      -0.085500
      5 C4A          0.8770     0.0170    -1.4350 ca         1 PHN      -0.146300
      6 C5           2.1060     0.0210    -0.7040 ca         1 PHN      -0.108000
      7 C6           2.1050     0.0110     0.6480 ca         1 PHN      -0.108000
      8 C6A          0.8760    -0.0050     1.3760 ca         1 PHN      -0.146300
      9 C7           0.8460    -0.0170     2.7810 ca         1 PHN      -0.085500
     10 C8          -0.3630    -0.0320     3.4270 ca         1 PHN      -0.243300
     11 C9          -1.5310    -0.0350     2.6510 ca         1 PHN       0.408200
     12 N10         -1.5350    -0.0240     1.3390 nb         1 PHN      -0.624000
     13 C10         -0.3580    -0.0090     0.6940 ca         1 PHN       0.361300
     14 C1A         -0.3570     0.0030    -0.7540 ca         1 PHN       0.361300
     15 H2          -2.4970     0.0060    -3.2010 h4         1 PHN       0.022100
     16 H3          -0.4240     0.0320    -4.5650 ha         1 PHN       0.143000
     17 H4           1.7780     0.0400    -3.3960 ha         1 PHN       0.137000
     18 H5           3.0370     0.0330    -1.2570 ha         1 PHN       0.135000
     19 H6           3.0360     0.0150     1.2010 ha         1 PHN       0.135000
     20 H7           1.7750    -0.0150     3.3380 ha         1 PHN       0.137000
     21 H8          -0.4280    -0.0420     4.5060 ha         1 PHN       0.143000
     22 H9          -2.5000    -0.0450     3.1390 h4         1 PHN       0.022100
@<TRIPOS>BOND
     1     1     2 ar  
     2     1    14 ar  
     3     2     3 ar  
     4     2    15 1   
     5     3     4 ar  
     6     3    16 1   
     7     4     5 ar  
     8     4    17 1   
     9     5     6 ar  
    10     5    14 ar  
    11     6     7 ar  
    12     6    18 1   
    13     7     8 ar  
    14     7    19 1   
    15     8     9 ar  
    16     8    13 ar  
    17     9    10 ar  
    18     9    20 1   
    19    10    11 ar  
    20    10    21 1   
    21    11    12 ar  
    22    11    22 1   
    23    12    13 ar  
    24    13    14 ar  
@<TRIPOS>SUBSTRUCTURE
     1 PHN         1 TEMP              0 ****  ****    0 ROOT
