@<TRIPOS>MOLECULE
PHO
  138   143     1     0     0
SMALL
bcc


@<TRIPOS>ATOM
      1 CHA         73.1070   130.7180    73.7270 ce         1 PHO      -0.196800
      2 CHB         75.5820   133.0980    77.0170 ce         1 PHO      -0.256200
      3 CHC         71.9640   132.3370    80.1630 ce         1 PHO      -0.091200
      4 CHD         69.4220   129.9170    76.8740 ce         1 PHO      -0.031600
      5 NA          74.1450   131.8480    75.5360 nf         1 PHO      -0.663300
      6 C1A         74.1460   131.4460    74.2420 ce         1 PHO       0.488600
      7 C2A         75.3760   131.9110    73.4970 c5         1 PHO      -0.144000
      8 C3A         76.2050   132.5670    74.6140 c5         1 PHO      -0.074500
      9 C4A         75.2600   132.5100    75.7900 cf         1 PHO       0.218400
     10 CMA         77.5190   131.8420    74.8890 c3         1 PHO      -0.079100
     11 CAA         75.0710   132.8400    72.3200 c3         1 PHO      -0.055400
     12 CBA         74.2130   134.0470    72.7030 c3         1 PHO      -0.144400
     13 CGA         73.6160   134.7630    71.5200 c          1 PHO       0.642100
     14 O1A         72.4930   135.2030    71.4940 o          1 PHO      -0.532000
     15 O2A         74.4660   134.8550    70.5080 os         1 PHO      -0.428900
     16 NB          73.6220   132.5180    78.3740 na         1 PHO      -0.206100
     17 C1B         74.8350   133.0920    78.1800 cc         1 PHO       0.109900
     18 C2B         75.2200   133.6960    79.4300 cd         1 PHO      -0.113300
     19 C3B         74.2280   133.4450    80.3370 cd         1 PHO      -0.043800
     20 C4B         73.1800   132.7110    79.6550 cc         1 PHO       0.001900
     21 CMB         76.5050   134.4150    79.6430 c3         1 PHO      -0.031800
     22 CAB         74.2340   133.8480    81.7380 cf         1 PHO      -0.110200
     23 CBB         73.7930   133.1200    82.7640 c2         1 PHO      -0.190000
     24 NC          70.9700   131.1740    78.2640 nd         1 PHO      -0.624300
     25 C1C         70.9310   131.6230    79.5180 cd         1 PHO       0.138600
     26 C2C         69.6820   131.2700    80.1760 cd         1 PHO      -0.138200
     27 C3C         68.9620   130.5700    79.2580 cc         1 PHO      -0.170800
     28 C4C         69.7840   130.5260    78.0610 cc         1 PHO       0.342900
     29 CMC         69.3090   131.6300    81.5730 c3         1 PHO      -0.027900
     30 CAC         67.5870   130.0030    79.3930 c3         1 PHO      -0.020200
     31 CBC         66.5130   130.9260    78.8160 c3         1 PHO      -0.087100
     32 ND          71.4420   130.4890    75.6490 na         1 PHO      -0.451800
     33 C1D         70.1960   129.8890    75.7110 cc         1 PHO      -0.044000
     34 C2D         69.9120   129.3190    74.4490 cc         1 PHO       0.030800
     35 C3D         71.0260   129.6090    73.6610 cd         1 PHO      -0.294200
     36 C4D         71.9480   130.3370    74.4290 cd         1 PHO       0.166000
     37 CMD         68.6760   128.6060    74.0410 c3         1 PHO      -0.043900
     38 CAD         71.5580   129.4370    72.3320 c          1 PHO       0.631300
     39 OBD         71.1080   128.8270    71.3900 o          1 PHO      -0.510100
     40 CBD         72.9070   130.2280    72.3070 c5         1 PHO      -0.182500
     41 CGD         73.9870   129.3130    71.7830 c          1 PHO       0.652100
     42 O1D         74.6800   128.6130    72.4750 o          1 PHO      -0.523000
     43 O2D         74.0420   129.3460    70.4620 os         1 PHO      -0.411900
     44 CED         74.9640   128.4660    69.8160 c3         1 PHO       0.128700
     45 C1          73.9500   135.3040    69.2370 c3         1 PHO       0.183600
     46 C2          72.9620   134.3320    68.6680 c2         1 PHO      -0.226200
     47 C3          73.2670   133.1010    68.2490 c2         1 PHO      -0.072400
     48 C4          74.6610   132.5480    68.2410 c3         1 PHO      -0.065900
     49 C5          72.2300   132.1320    67.7380 c3         1 PHO      -0.049200
     50 C6          70.7820   132.3550    68.1640 c3         1 PHO      -0.068400
     51 C7          70.5720   132.1670    69.6640 c3         1 PHO      -0.081400
     52 C8          69.1180   132.2520    70.1370 c3         1 PHO      -0.051700
     53 C9          69.0690   132.4000    71.6560 c3         1 PHO      -0.091100
     54 C10         68.3140   131.0420    69.6590 c3         1 PHO      -0.079400
     55 C11         66.8380   131.0340    70.0410 c3         1 PHO      -0.072400
     56 C12         66.1110   129.8520    69.4050 c3         1 PHO      -0.072400
     57 C13         64.6420   129.6680    69.8010 c3         1 PHO      -0.056700
     58 C14         63.7670   130.8080    69.2850 c3         1 PHO      -0.088100
     59 C15         64.4350   129.4900    71.3090 c3         1 PHO      -0.068400
     60 C16         65.3280   128.4570    71.9920 c3         1 PHO      -0.073400
     61 C17         65.1770   127.0350    71.4680 c3         1 PHO      -0.072400
     62 C18         66.1470   126.0290    72.0920 c3         1 PHO      -0.063700
     63 C19         65.9190   125.8560    73.5900 c3         1 PHO      -0.086100
     64 C20         66.0490   124.6830    71.3820 c3         1 PHO      -0.086100
     65 HHC         71.7730   132.6350    81.1850 ha         1 PHO       0.146000
     66 HHD         68.4600   129.4220    76.8300 ha         1 PHO       0.144000
     67 H2A         75.9150   131.0450    73.1000 hc         1 PHO       0.085700
     68 H3A         76.4330   133.6120    74.3770 hc         1 PHO       0.071700
     69 HMA1        78.0710   132.3060    75.7070 hc         1 PHO       0.042700
     70 HMA2        77.3440   130.7970    75.1470 hc         1 PHO       0.042700
     71 HMA3        78.1550   131.8690    74.0030 hc         1 PHO       0.042700
     72 HAA1        76.0210   133.1720    71.8970 hc         1 PHO       0.056200
     73 HAA2        74.5780   132.2710    71.5290 hc         1 PHO       0.056200
     74 HBA1        73.3810   133.7520    73.3430 hc         1 PHO       0.077200
     75 HBA2        74.8040   134.7700    73.2750 hc         1 PHO       0.077200
     76 HMB1        76.6310   135.2220    78.9200 hc         1 PHO       0.049367
     77 HMB2        76.5640   134.8480    80.6390 hc         1 PHO       0.049367
     78 HMB3        77.3570   133.7420    79.5260 hc         1 PHO       0.049367
     79 HAB         74.6720   134.8180    81.9470 ha         1 PHO       0.130000
     80 HBB1        73.8500   133.5040    83.7740 ha         1 PHO       0.120000
     81 HBB2        73.3910   132.1230    82.6460 ha         1 PHO       0.120000
     82 HMC1        68.3570   131.1830    81.8560 hc         1 PHO       0.039700
     83 HMC2        70.0580   131.2920    82.2920 hc         1 PHO       0.039700
     84 HMC3        69.2130   132.7100    81.6980 hc         1 PHO       0.039700
     85 HAC1        67.5320   129.0290    78.9000 hc         1 PHO       0.045200
     86 HAC2        67.3730   129.8150    80.4470 hc         1 PHO       0.045200
     87 HBC1        65.5200   130.4930    78.9430 hc         1 PHO       0.035700
     88 HBC2        66.5240   131.8950    79.3150 hc         1 PHO       0.035700
     89 HBC3        66.6680   131.0980    77.7510 hc         1 PHO       0.035700
     90 HMD1        68.1020   129.2100    73.3360 hc         1 PHO       0.054700
     91 HMD2        68.9110   127.6680    73.5380 hc         1 PHO       0.054700
     92 HMD3        68.0260   128.3800    74.8850 hc         1 PHO       0.054700
     93 HBD         72.7600   131.0580    71.6070 hc         1 PHO       0.107700
     94 HED1        74.8500   128.6470    68.7510 h1         1 PHO       0.048700
     95 HED2        75.9900   128.6800    70.1130 h1         1 PHO       0.048700
     96 HED3        74.7350   127.4230    70.0350 h1         1 PHO       0.048700
     97 H11         73.5050   136.2940    69.3450 h1         1 PHO       0.060200
     98 H12         74.8380   135.4060    68.6160 h1         1 PHO       0.060200
     99 H2          71.9290   134.6560    68.6560 ha         1 PHO       0.143000
    100 H41         74.8640   132.0460    67.2920 hc         1 PHO       0.043033
    101 H42         75.4350   133.2970    68.3950 hc         1 PHO       0.043033
    102 H43         74.7710   131.7910    69.0210 hc         1 PHO       0.043033
    103 H51         72.2970   132.1190    66.6430 hc         1 PHO       0.049200
    104 H52         72.5290   131.1250    68.0480 hc         1 PHO       0.049200
    105 H61         70.4340   133.3470    67.8590 hc         1 PHO       0.039700
    106 H62         70.1670   131.6440    67.6080 hc         1 PHO       0.039700
    107 H71         70.9830   131.1930    69.9540 hc         1 PHO       0.045200
    108 H72         71.1630   132.9130    70.2000 hc         1 PHO       0.045200
    109 H8          68.6710   133.1550    69.6990 hc         1 PHO       0.041700
    110 H91         68.0590   132.5950    72.0180 hc         1 PHO       0.034033
    111 H92         69.4240   131.4930    72.1540 hc         1 PHO       0.034033
    112 H93         69.7000   133.2260    71.9910 hc         1 PHO       0.034033
    113 H101        68.3860   130.9690    68.5690 hc         1 PHO       0.040700
    114 H102        68.7880   130.1340    70.0520 hc         1 PHO       0.040700
    115 H111        66.7400   130.9890    71.1290 hc         1 PHO       0.037200
    116 H112        66.3740   131.9760    69.7310 hc         1 PHO       0.037200
    117 H121        66.1680   129.9480    68.3150 hc         1 PHO       0.037200
    118 H122        66.6630   128.9370    69.6450 hc         1 PHO       0.037200
    119 H13         64.3020   128.7520    69.3040 hc         1 PHO       0.041700
    120 H141        62.7140   130.6290    69.5110 hc         1 PHO       0.031367
    121 H142        64.0390   131.7610    69.7420 hc         1 PHO       0.031367
    122 H143        63.8580   130.9210    68.2030 hc         1 PHO       0.031367
    123 H151        64.5850   130.4550    71.8050 hc         1 PHO       0.035700
    124 H152        63.3860   129.2290    71.4840 hc         1 PHO       0.035700
    125 H161        66.3760   128.7610    71.9000 hc         1 PHO       0.036700
    126 H162        65.1110   128.4800    73.0640 hc         1 PHO       0.036700
    127 H171        64.1480   126.6890    71.6290 hc         1 PHO       0.038200
    128 H172        65.3290   127.0260    70.3830 hc         1 PHO       0.038200
    129 H18         67.1640   126.4150    71.9450 hc         1 PHO       0.046700
    130 H191        66.6120   125.1240    74.0100 hc         1 PHO       0.030700
    131 H192        66.0600   126.7870    74.1410 hc         1 PHO       0.030700
    132 H193        64.9040   125.5020    73.7880 hc         1 PHO       0.030700
    133 H201        66.7530   123.9590    71.7960 hc         1 PHO       0.030700
    134 H202        65.0450   124.2630    71.4840 hc         1 PHO       0.030700
    135 H203        66.2610   124.7780    70.3150 hc         1 PHO       0.030700
    136 HNB         73.0940   132.0530    77.6530 hn         1 PHO       0.344700
    137 HND         71.8380   130.9610    76.4510 hn         1 PHO       0.506800
    138 HHB         76.5280   133.6210    77.0690 ha         1 PHO       0.142000
@<TRIPOS>BOND
     1     1     6 1   
     2     1    36 2   
     3     1    40 1   
     4     2     9 2   
     5     2    17 1   
     6     2   138 1   
     7     3    20 1   
     8     3    25 2   
     9     3    65 1   
    10     4    28 1   
    11     4    33 2   
    12     4    66 1   
    13     5     6 2   
    14     5     9 1   
    15     6     7 1   
    16     7     8 1   
    17     7    11 1   
    18     7    67 1   
    19     8     9 1   
    20     8    10 1   
    21     8    68 1   
    22    10    69 1   
    23    10    70 1   
    24    10    71 1   
    25    11    12 1   
    26    11    72 1   
    27    11    73 1   
    28    12    13 1   
    29    12    74 1   
    30    12    75 1   
    31    13    14 2   
    32    13    15 1   
    33    15    45 1   
    34    16    17 1   
    35    16    20 1   
    36    16   136 1   
    37    17    18 2   
    38    18    19 1   
    39    18    21 1   
    40    19    20 2   
    41    19    22 1   
    42    21    76 1   
    43    21    77 1   
    44    21    78 1   
    45    22    23 2   
    46    22    79 1   
    47    23    80 1   
    48    23    81 1   
    49    24    25 1   
    50    24    28 2   
    51    25    26 1   
    52    26    27 2   
    53    26    29 1   
    54    27    28 1   
    55    27    30 1   
    56    29    82 1   
    57    29    83 1   
    58    29    84 1   
    59    30    31 1   
    60    30    85 1   
    61    30    86 1   
    62    31    87 1   
    63    31    88 1   
    64    31    89 1   
    65    32    33 1   
    66    32    36 1   
    67    32   137 1   
    68    33    34 1   
    69    34    35 2   
    70    34    37 1   
    71    35    36 1   
    72    35    38 1   
    73    37    90 1   
    74    37    91 1   
    75    37    92 1   
    76    38    39 2   
    77    38    40 1   
    78    40    41 1   
    79    40    93 1   
    80    41    42 2   
    81    41    43 1   
    82    43    44 1   
    83    44    94 1   
    84    44    95 1   
    85    44    96 1   
    86    45    46 1   
    87    45    97 1   
    88    45    98 1   
    89    46    47 2   
    90    46    99 1   
    91    47    48 1   
    92    47    49 1   
    93    48   100 1   
    94    48   101 1   
    95    48   102 1   
    96    49    50 1   
    97    49   103 1   
    98    49   104 1   
    99    50    51 1   
   100    50   105 1   
   101    50   106 1   
   102    51    52 1   
   103    51   107 1   
   104    51   108 1   
   105    52    53 1   
   106    52    54 1   
   107    52   109 1   
   108    53   110 1   
   109    53   111 1   
   110    53   112 1   
   111    54    55 1   
   112    54   113 1   
   113    54   114 1   
   114    55    56 1   
   115    55   115 1   
   116    55   116 1   
   117    56    57 1   
   118    56   117 1   
   119    56   118 1   
   120    57    58 1   
   121    57    59 1   
   122    57   119 1   
   123    58   120 1   
   124    58   121 1   
   125    58   122 1   
   126    59    60 1   
   127    59   123 1   
   128    59   124 1   
   129    60    61 1   
   130    60   125 1   
   131    60   126 1   
   132    61    62 1   
   133    61   127 1   
   134    61   128 1   
   135    62    63 1   
   136    62    64 1   
   137    62   129 1   
   138    63   130 1   
   139    63   131 1   
   140    63   132 1   
   141    64   133 1   
   142    64   134 1   
   143    64   135 1   
@<TRIPOS>SUBSTRUCTURE
     1 PHO         1 TEMP              0 ****  ****    0 ROOT
