@<TRIPOS>MOLECULE
PHO
  138   143     1     0     0
SMALL
No Charge or Current Charge


@<TRIPOS>ATOM
      1 CHA         72.1790   130.4980    73.5580 ce         1 PHO      -0.196800
      2 CHB         75.6370   132.4220    76.3730 ce         1 PHO      -0.256200
      3 CHC         72.1960   132.5120    80.0270 ce         1 PHO      -0.091200
      4 CHD         68.9300   130.2600    77.2690 ce         1 PHO      -0.031600
      5 NA          73.7760   131.2130    75.2490 nf         1 PHO      -0.663300
      6 C1A         73.5000   130.9680    74.0060 ce         1 PHO       0.488600
      7 C2A         74.5060   131.4700    72.9760 c5         1 PHO      -0.144000
      8 C3A         75.7300   131.6990    73.9550 c5         1 PHO      -0.074500
      9 C4A         75.0350   131.7780    75.3400 cf         1 PHO       0.218400
     10 CMA         76.7520   130.5390    73.9320 c3         1 PHO      -0.079100
     11 CAA         74.0300   132.7270    72.1940 c3         1 PHO      -0.055400
     12 CBA         73.7910   134.0110    73.0370 c3         1 PHO      -0.144400
     13 CGA         73.1220   135.1010    72.1990 c          1 PHO       0.642100
     14 O1A         71.9160   135.3090    72.2080 o          1 PHO      -0.532000
     15 O2A         74.0020   135.6430    71.2970 os         1 PHO      -0.428900
     16 NB          73.8000   132.2660    78.0910 na         1 PHO      -0.206100
     17 C1B         75.0720   132.6590    77.6990 cc         1 PHO       0.109900
     18 C2B         75.6060   133.2980    78.7890 cd         1 PHO      -0.113300
     19 C3B         74.6400   133.3110    79.8320 cd         1 PHO      -0.043800
     20 C4B         73.4990   132.6900    79.3790 cc         1 PHO       0.001900
     21 CMB         76.9860   133.9040    78.8730 c3         1 PHO      -0.031800
     22 CAB         74.8190   133.9240    81.1510 cf         1 PHO      -0.110200
     23 CBB         74.5220   133.3000    82.3120 c2         1 PHO      -0.190000
     24 NC          70.8450   131.3530    78.3800 nd         1 PHO      -0.624300
     25 C1C         70.9990   131.9640    79.6080 cd         1 PHO       0.138600
     26 C2C         69.7980   131.9730    80.3900 cd         1 PHO      -0.138200
     27 C3C         68.8810   131.3260    79.6050 cc         1 PHO      -0.170800
     28 C4C         69.5640   130.9760    78.3970 cc         1 PHO       0.342900
     29 CMC         69.6000   132.5680    81.7650 c3         1 PHO      -0.027900
     30 CAC         67.4310   131.0180    79.8980 c3         1 PHO      -0.020200
     31 CBC         66.4650   132.0140    79.2290 c3         1 PHO      -0.087100
     32 ND          70.7500   130.7690    75.6140 na         1 PHO      -0.451800
     33 C1D         69.5700   130.1380    75.9540 cc         1 PHO      -0.044000
     34 C2D         69.1940   129.3030    74.8300 cc         1 PHO       0.030800
     35 C3D         70.1990   129.4530    73.8990 cd         1 PHO      -0.294200
     36 C4D         71.1180   130.3560    74.3780 cd         1 PHO       0.166000
     37 CMD         67.9840   128.4120    74.7900 c3         1 PHO      -0.043900
     38 CAD         70.5390   128.8910    72.5890 c          1 PHO       0.631300
     39 OBD         69.8550   128.1790    71.8680 o          1 PHO      -0.510100
     40 CBD         71.9310   129.5550    72.3420 c5         1 PHO      -0.182500
     41 CGD         72.8450   128.3310    72.2950 c          1 PHO       0.652100
     42 O1D         72.9570   127.4980    73.1850 o          1 PHO      -0.523000
     43 O2D         73.7870   128.5110    71.3170 os         1 PHO      -0.411900
     44 CED         74.8490   127.5480    71.2060 c3         1 PHO       0.128700
     45 C1          73.4870   136.4460    70.2200 c3         1 PHO       0.183600
     46 C2          72.7270   135.5280    69.2770 c2         1 PHO      -0.226200
     47 C3          73.2260   134.5040    68.5530 c2         1 PHO      -0.072400
     48 C4          74.7020   134.1360    68.5040 c3         1 PHO      -0.065900
     49 C5          72.3760   133.5540    67.7070 c3         1 PHO      -0.049200
     50 C6          70.9230   133.3100    68.1930 c3         1 PHO      -0.068400
     51 C7          70.8250   132.7770    69.6470 c3         1 PHO      -0.081400
     52 C8          69.3810   132.4720    70.1360 c3         1 PHO      -0.051700
     53 C9          69.3180   132.4880    71.6840 c3         1 PHO      -0.091100
     54 C10         68.8440   131.1410    69.5340 c3         1 PHO      -0.079400
     55 C11         67.3630   130.8250    69.8560 c3         1 PHO      -0.072400
     56 C12         66.8730   129.5230    69.1750 c3         1 PHO      -0.072400
     57 C13         65.3800   129.1530    69.4170 c3         1 PHO      -0.056700
     58 C14         64.4180   130.1550    68.7360 c3         1 PHO      -0.088100
     59 C15         65.0000   128.9540    70.9150 c3         1 PHO      -0.068400
     60 C16         65.8640   127.9520    71.7230 c3         1 PHO      -0.073400
     61 C17         65.8700   126.5060    71.1650 c3         1 PHO      -0.072400
     62 C18         66.7000   125.4910    71.9980 c3         1 PHO      -0.063700
     63 C19         66.1050   125.2310    73.4040 c3         1 PHO      -0.086100
     64 C20         66.8760   124.1600    71.2310 c3         1 PHO      -0.086100
     65 HHC         72.1520   132.9550    81.0170 ha         1 PHO       0.146000
     66 HHD         67.9430   129.8300    77.4050 ha         1 PHO       0.144000
     67 H2A         74.7300   130.6990    72.2330 hc         1 PHO       0.085700
     68 H3A         76.2860   132.6140    73.7220 hc         1 PHO       0.071700
     69 HMA1        77.5510   130.7030    74.6640 hc         1 PHO       0.042700
     70 HMA2        76.2740   129.5800    74.1670 hc         1 PHO       0.042700
     71 HMA3        77.2200   130.4470    72.9440 hc         1 PHO       0.042700
     72 HAA1        74.7670   132.9610    71.4150 hc         1 PHO       0.056200
     73 HAA2        73.1030   132.4820    71.6610 hc         1 PHO       0.056200
     74 HBA1        73.1590   133.7860    73.9030 hc         1 PHO       0.077200
     75 HBA2        74.7750   134.3780    73.3490 hc         1 PHO       0.077200
     76 HMB1        77.0030   134.9010    78.4180 hc         1 PHO       0.049367
     77 HMB2        77.3210   134.0040    79.9120 hc         1 PHO       0.049367
     78 HMB3        77.7250   133.2830    78.3530 hc         1 PHO       0.049367
     79 HAB         75.3000   134.9020    81.1730 ha         1 PHO       0.130000
     80 HBB1        74.7150   133.7820    83.2700 ha         1 PHO       0.120000
     81 HBB2        74.0960   132.2970    82.3250 ha         1 PHO       0.120000
     82 HMC1        68.5410   132.6200    82.0420 hc         1 PHO       0.039700
     83 HMC2        70.1150   131.9700    82.5270 hc         1 PHO       0.039700
     84 HMC3        69.9950   133.5890    81.8140 hc         1 PHO       0.039700
     85 HAC1        67.1850   130.0010    79.5710 hc         1 PHO       0.045200
     86 HAC2        67.2520   131.0270    80.9800 hc         1 PHO       0.045200
     87 HBC1        65.4260   131.7600    79.4700 hc         1 PHO       0.035700
     88 HBC2        66.6610   133.0340    79.5810 hc         1 PHO       0.035700
     89 HBC3        66.5800   131.9960    78.1390 hc         1 PHO       0.035700
     90 HMD1        67.0750   129.0000    74.6180 hc         1 PHO       0.054700
     91 HMD2        68.0700   127.6730    73.9860 hc         1 PHO       0.054700
     92 HMD3        67.8660   127.8660    75.7330 hc         1 PHO       0.054700
     93 HBD         71.9400   130.0550    71.3700 hc         1 PHO       0.107700
     94 HED1        75.5150   127.8090    70.3740 h1         1 PHO       0.048700
     95 HED2        75.4500   127.5190    72.1250 h1         1 PHO       0.048700
     96 HED3        74.4490   126.5430    71.0200 h1         1 PHO       0.048700
     97 H11         72.8300   137.2400    70.5990 h1         1 PHO       0.060200
     98 H12         74.3110   136.9280    69.6770 h1         1 PHO       0.060200
     99 H2          71.6600   135.7440    69.2610 ha         1 PHO       0.143000
    100 H41         75.0720   134.1460    67.4710 hc         1 PHO       0.043033
    101 H42         75.3320   134.8250    69.0760 hc         1 PHO       0.043033
    102 H43         74.8710   133.1300    68.9070 hc         1 PHO       0.043033
    103 H51         72.3490   133.9140    66.6710 hc         1 PHO       0.049200
    104 H52         72.8580   132.5690    67.6630 hc         1 PHO       0.049200
    105 H61         70.3460   134.2380    68.1040 hc         1 PHO       0.039700
    106 H62         70.4560   132.5940    67.5080 hc         1 PHO       0.039700
    107 H71         71.4420   131.8760    69.7460 hc         1 PHO       0.045200
    108 H72         71.2680   133.5220    70.3150 hc         1 PHO       0.045200
    109 H8          68.7350   133.2870    69.7850 hc         1 PHO       0.041700
    110 H91         68.2880   132.3980    72.0460 hc         1 PHO       0.034033
    111 H92         69.9060   131.6670    72.1040 hc         1 PHO       0.034033
    112 H93         69.7180   133.4280    72.0800 hc         1 PHO       0.034033
    113 H101        68.9510   131.1690    68.4440 hc         1 PHO       0.040700
    114 H102        69.4690   130.3110    69.8850 hc         1 PHO       0.040700
    115 H111        67.2390   130.7240    70.9390 hc         1 PHO       0.037200
    116 H112        66.7430   131.6700    69.5330 hc         1 PHO       0.037200
    117 H121        67.0380   129.6090    68.0940 hc         1 PHO       0.037200
    118 H122        67.5080   128.6920    69.5050 hc         1 PHO       0.037200
    119 H13         65.2150   128.1940    68.9120 hc         1 PHO       0.041700
    120 H141        63.3830   129.7950    68.7950 hc         1 PHO       0.031367
    121 H142        64.4600   131.1390    69.2180 hc         1 PHO       0.031367
    122 H143        64.6700   130.2790    67.6760 hc         1 PHO       0.031367
    123 H151        65.0310   129.9240    71.4250 hc         1 PHO       0.035700
    124 H152        63.9550   128.6220    70.9680 hc         1 PHO       0.035700
    125 H161        66.8940   128.3220    71.7860 hc         1 PHO       0.036700
    126 H162        65.4780   127.9430    72.7490 hc         1 PHO       0.036700
    127 H171        64.8370   126.1460    71.0800 hc         1 PHO       0.038200
    128 H172        66.2780   126.5280    70.1480 hc         1 PHO       0.038200
    129 H18         67.7030   125.9150    72.1360 hc         1 PHO       0.046700
    130 H191        66.7110   124.4970    73.9490 hc         1 PHO       0.030700
    131 H192        66.0790   126.1460    74.0060 hc         1 PHO       0.030700
    132 H193        65.0830   124.8410    73.3280 hc         1 PHO       0.030700
    133 H201        67.5030   123.4630    71.8000 hc         1 PHO       0.030700
    134 H202        65.9050   123.6810    71.0520 hc         1 PHO       0.030700
    135 H203        67.3580   124.3310    70.2610 hc         1 PHO       0.030700
    136 HNB         73.1670   131.7490    77.4950 hn         1 PHO       0.344700
    137 HND         71.2990   131.3610    76.2340 hn         1 PHO       0.506800
    138 HHB         76.6330   132.8300    76.2140 ha         1 PHO       0.142000
@<TRIPOS>BOND
     1     1     6 1   
     2     1    36 2   
     3     1    40 1   
     4     2     9 2   
     5     2    17 1   
     6     2   138 1   
     7     3    20 1   
     8     3    25 2   
     9     3    65 1   
    10     4    28 1   
    11     4    33 2   
    12     4    66 1   
    13     5     6 2   
    14     5     9 1   
    15     6     7 1   
    16     7     8 1   
    17     7    11 1   
    18     7    67 1   
    19     8     9 1   
    20     8    10 1   
    21     8    68 1   
    22    10    69 1   
    23    10    70 1   
    24    10    71 1   
    25    11    12 1   
    26    11    72 1   
    27    11    73 1   
    28    12    13 1   
    29    12    74 1   
    30    12    75 1   
    31    13    14 2   
    32    13    15 1   
    33    15    45 1   
    34    16    17 1   
    35    16    20 1   
    36    16   136 1   
    37    17    18 2   
    38    18    19 1   
    39    18    21 1   
    40    19    20 2   
    41    19    22 1   
    42    21    76 1   
    43    21    77 1   
    44    21    78 1   
    45    22    23 2   
    46    22    79 1   
    47    23    80 1   
    48    23    81 1   
    49    24    25 1   
    50    24    28 2   
    51    25    26 1   
    52    26    27 2   
    53    26    29 1   
    54    27    28 1   
    55    27    30 1   
    56    29    82 1   
    57    29    83 1   
    58    29    84 1   
    59    30    31 1   
    60    30    85 1   
    61    30    86 1   
    62    31    87 1   
    63    31    88 1   
    64    31    89 1   
    65    32    33 1   
    66    32    36 1   
    67    32   137 1   
    68    33    34 1   
    69    34    35 2   
    70    34    37 1   
    71    35    36 1   
    72    35    38 1   
    73    37    90 1   
    74    37    91 1   
    75    37    92 1   
    76    38    39 2   
    77    38    40 1   
    78    40    41 1   
    79    40    93 1   
    80    41    42 2   
    81    41    43 1   
    82    43    44 1   
    83    44    94 1   
    84    44    95 1   
    85    44    96 1   
    86    45    46 1   
    87    45    97 1   
    88    45    98 1   
    89    46    47 2   
    90    46    99 1   
    91    47    48 1   
    92    47    49 1   
    93    48   100 1   
    94    48   101 1   
    95    48   102 1   
    96    49    50 1   
    97    49   103 1   
    98    49   104 1   
    99    50    51 1   
   100    50   105 1   
   101    50   106 1   
   102    51    52 1   
   103    51   107 1   
   104    51   108 1   
   105    52    53 1   
   106    52    54 1   
   107    52   109 1   
   108    53   110 1   
   109    53   111 1   
   110    53   112 1   
   111    54    55 1   
   112    54   113 1   
   113    54   114 1   
   114    55    56 1   
   115    55   115 1   
   116    55   116 1   
   117    56    57 1   
   118    56   117 1   
   119    56   118 1   
   120    57    58 1   
   121    57    59 1   
   122    57   119 1   
   123    58   120 1   
   124    58   121 1   
   125    58   122 1   
   126    59    60 1   
   127    59   123 1   
   128    59   124 1   
   129    60    61 1   
   130    60   125 1   
   131    60   126 1   
   132    61    62 1   
   133    61   127 1   
   134    61   128 1   
   135    62    63 1   
   136    62    64 1   
   137    62   129 1   
   138    63   130 1   
   139    63   131 1   
   140    63   132 1   
   141    64   133 1   
   142    64   134 1   
   143    64   135 1   
@<TRIPOS>SUBSTRUCTURE
     1 PHO         1 TEMP              0 ****  ****    0 ROOT
