@<TRIPOS>MOLECULE
PHP
  105   108     1     0     0
SMALL
No Charge or Current Charge


@<TRIPOS>ATOM
      1 C1           1.7820    -5.3210     1.0920 c          1 PHP       0.636600
      2 O1           1.8500    -6.4150     0.5540 o          1 PHP      -0.553000
      3 OA1          2.7790    -4.3990     1.1500 os         1 PHP      -0.460600
      4 CB1          4.0330    -4.7400     0.5370 c3         1 PHP       0.230900
      5 CG1          4.9930    -3.5720     0.7220 ca         1 PHP      -0.091800
      6 CDB          5.0560    -2.5450    -0.2400 ca         1 PHP      -0.084250
      7 CDL          5.8240    -3.5080     1.8580 ca         1 PHP      -0.084250
      8 CEB          5.9430    -1.4670    -0.0690 ca         1 PHP      -0.119000
      9 CEL          6.7110    -2.4300     2.0280 ca         1 PHP      -0.119000
     10 CZ1          6.7710    -1.4100     1.0640 ca         1 PHP      -0.105000
     11 N2           0.6780    -4.8120     1.7120 ns         1 PHP      -0.475400
     12 CA2         -0.6270    -5.4980     1.8440 c3         1 PHP       0.041700
     13 CB2         -0.7470    -6.2820     3.1900 c3         1 PHP      -0.068700
     14 CGL          0.2430    -7.4670     3.2780 c3         1 PHP      -0.090600
     15 CGM         -0.6310    -5.3670     4.4350 c3         1 PHP      -0.090600
     16 C2          -1.7870    -4.4740     1.6530 c          1 PHP       0.592100
     17 O2          -1.6160    -3.2590     1.6690 o          1 PHP      -0.633100
     18 N3          -3.0370    -5.0400     1.4610 ns         1 PHP      -0.454900
     19 CA3         -4.2940    -4.2840     1.1730 c3         1 PHP      -0.229300
     20 CB3         -4.7290    -4.4930    -0.3000 c3         1 PHP      -0.023100
     21 CG3         -3.6070    -4.1930    -1.2890 ca         1 PHP      -0.059800
     22 CDD         -3.2330    -2.8600    -1.5490 ca         1 PHP      -0.096500
     23 CDN         -2.9230    -5.2420    -1.9360 ca         1 PHP      -0.096500
     24 CED         -2.1870    -2.5790    -2.4460 ca         1 PHP      -0.113500
     25 CEN         -1.8770    -4.9600    -2.8320 ca         1 PHP      -0.113500
     26 CZ3         -1.5090    -3.6280    -3.0870 ca         1 PHP      -0.127000
     27 P3          -5.6780    -4.5740     2.4070 p5         1 PHP       1.357000
     28 O3          -5.1910    -4.3370     3.8030 o          1 PHP      -0.796500
     29 O4          -6.2040    -5.9660     2.2370 o          1 PHP      -0.796500
     30 N4          -8.1990    -3.3910     2.9080 ns         1 PHP      -0.454900
     31 CA4         -7.0320    -3.3400     1.9780 c3         1 PHP      -0.229300
     32 CB4         -6.5750    -1.8720     1.7430 c3         1 PHP      -0.023100
     33 CG4         -6.1600    -1.1330     3.0140 ca         1 PHP      -0.059800
     34 CDE         -7.1350    -0.5220     3.8290 ca         1 PHP      -0.096500
     35 CDO         -4.8010    -1.0280     3.3730 ca         1 PHP      -0.096500
     36 CEE         -6.7590     0.1670     4.9950 ca         1 PHP      -0.113500
     37 CEO         -4.4250    -0.3380     4.5400 ca         1 PHP      -0.113500
     38 CZ4         -5.4040     0.2570     5.3520 ca         1 PHP      -0.127000
     39 N5         -11.7580    -2.4870     3.3460 ns         1 PHP      -0.475400
     40 CA5        -10.5420    -3.2340     3.7310 c3         1 PHP       0.041700
     41 CB5        -10.9040    -4.6820     4.1990 c3         1 PHP      -0.068700
     42 CGF        -11.5340    -5.5450     3.0770 c3         1 PHP      -0.090600
     43 CGG         -9.7190    -5.4210     4.8650 c3         1 PHP      -0.090600
     44 C5          -9.5210    -3.1950     2.5510 c          1 PHP       0.592100
     45 O5          -9.8530    -2.9710     1.3910 o          1 PHP      -0.633100
     46 CB6        -14.7190    -0.7270     4.2330 c3         1 PHP       0.230900
     47 CG6        -15.7000    -0.1220     3.2380 ca         1 PHP      -0.091800
     48 CDG        -15.5350     1.2060     2.7950 ca         1 PHP      -0.084250
     49 CEG        -16.4420     1.7650     1.8770 ca         1 PHP      -0.119000
     50 CEQ        -17.6860    -0.3250     1.8330 ca         1 PHP      -0.119000
     51 CDQ        -16.7790    -0.8850     2.7500 ca         1 PHP      -0.084250
     52 CZ6        -17.5180     1.0000     1.3960 ca         1 PHP      -0.105000
     53 OA6        -13.6560    -1.3550     3.4980 os         1 PHP      -0.460600
     54 O6         -12.5990    -2.0140     5.4310 o          1 PHP      -0.553000
     55 HB11         3.9010    -4.9400    -0.5350 h1         1 PHP       0.053200
     56 HB12         4.4590    -5.6420     0.9980 h1         1 PHP       0.053200
     57 HD11         4.4160    -2.5800    -1.1200 ha         1 PHP       0.116750
     58 HD12         5.7810    -4.2930     2.6110 ha         1 PHP       0.116750
     59 HE11         5.9870    -0.6770    -0.8160 ha         1 PHP       0.109500
     60 HE12         7.3500    -2.3860     2.9070 ha         1 PHP       0.109500
     61 HZ1          7.4570    -0.5760     1.1960 ha         1 PHP       0.106500
     62 HN2          0.7660    -3.8660     2.0620 hn         1 PHP       0.340000
     63 HA2         -0.7230    -6.2140     1.0170 h1         1 PHP       0.076200
     64 HB2         -1.7510    -6.7250     3.2180 hc         1 PHP       0.064200
     65 HG21         1.2790    -7.1150     3.3380 hc         1 PHP       0.039700
     66 HG22         0.0410    -8.0730     4.1700 hc         1 PHP       0.039700
     67 HG23         0.1490    -8.1190     2.4010 hc         1 PHP       0.039700
     68 HG24        -1.3850    -4.5720     4.4130 hc         1 PHP       0.039700
     69 HG25        -0.7850    -5.9470     5.3540 hc         1 PHP       0.039700
     70 HG26         0.3600    -4.9010     4.4930 hc         1 PHP       0.039700
     71 HN3         -3.0770    -6.0540     1.4790 hn         1 PHP       0.324000
     72 HA3         -4.0780    -3.2210     1.3080 h1         1 PHP       0.081200
     73 HB31        -5.0790    -5.5250    -0.4280 hc         1 PHP       0.047700
     74 HB32        -5.5900    -3.8530    -0.5250 hc         1 PHP       0.047700
     75 HD31        -3.7480    -2.0420    -1.0510 ha         1 PHP       0.112750
     76 HD32        -3.1970    -6.2760    -1.7400 ha         1 PHP       0.112750
     77 HE31        -1.9020    -1.5470    -2.6410 ha         1 PHP       0.100500
     78 HE32        -1.3510    -5.7740    -3.3260 ha         1 PHP       0.100500
     79 HZ3         -0.6990    -3.4110    -3.7800 ha         1 PHP       0.094500
     80 HN4         -8.0210    -3.5570     3.8940 hn         1 PHP       0.324000
     81 HA4         -7.3680    -3.7360     1.0120 h1         1 PHP       0.081200
     82 HB41        -7.4040    -1.3280     1.2720 hc         1 PHP       0.047700
     83 HB42        -5.7680    -1.8410     1.0020 hc         1 PHP       0.047700
     84 HD41        -8.1860    -0.5790     3.5570 ha         1 PHP       0.112750
     85 HD42        -4.0310    -1.4790     2.7530 ha         1 PHP       0.112750
     86 HE41        -7.5180     0.6320     5.6200 ha         1 PHP       0.100500
     87 HE42        -3.3750    -0.2650     4.8120 ha         1 PHP       0.100500
     88 HZ4         -5.1130     0.7900     6.2540 ha         1 PHP       0.094500
     89 HN5        -11.9460    -2.3410     2.3620 hn         1 PHP       0.340000
     90 HA5        -10.0760    -2.7010     4.5710 h1         1 PHP       0.076200
     91 HB5        -11.6670    -4.5800     4.9810 hc         1 PHP       0.064200
     92 HG51       -12.4250    -5.0610     2.6590 hc         1 PHP       0.039700
     93 HG52       -11.8400    -6.5220     3.4690 hc         1 PHP       0.039700
     94 HG53       -10.8210    -5.7150     2.2610 hc         1 PHP       0.039700
     95 HG54        -8.9510    -5.6930     4.1310 hc         1 PHP       0.039700
     96 HG55       -10.0660    -6.3470     5.3410 hc         1 PHP       0.039700
     97 HG56        -9.2570    -4.8000     5.6420 hc         1 PHP       0.039700
     98 HB61       -14.3250     0.0630     4.8880 h1         1 PHP       0.053200
     99 HB62       -15.2410    -1.4590     4.8640 h1         1 PHP       0.053200
    100 HD61       -14.7030     1.8040     3.1610 ha         1 PHP       0.116750
    101 HE61       -16.3100     2.7900     1.5390 ha         1 PHP       0.109500
    102 HE62       -18.5170    -0.9190     1.4600 ha         1 PHP       0.109500
    103 HD62       -16.9150    -1.9120     3.0810 ha         1 PHP       0.116750
    104 HZ6        -18.2190     1.4320     0.6860 ha         1 PHP       0.106500
    105 C6         -12.6720    -1.9620     4.2130 c          1 PHP       0.636600
@<TRIPOS>BOND
     1     1     2 2   
     2     1     3 1   
     3     1    11 1   
     4     3     4 1   
     5     4     5 1   
     6     4    55 1   
     7     4    56 1   
     8     5     6 ar  
     9     5     7 ar  
    10     6     8 ar  
    11     6    57 1   
    12     7     9 ar  
    13     7    58 1   
    14     8    10 ar  
    15     8    59 1   
    16     9    10 ar  
    17     9    60 1   
    18    10    61 1   
    19    11    12 1   
    20    11    62 1   
    21    12    13 1   
    22    12    16 1   
    23    12    63 1   
    24    13    14 1   
    25    13    15 1   
    26    13    64 1   
    27    14    65 1   
    28    14    66 1   
    29    14    67 1   
    30    15    68 1   
    31    15    69 1   
    32    15    70 1   
    33    16    17 2   
    34    16    18 1   
    35    18    19 1   
    36    18    71 1   
    37    19    20 1   
    38    19    27 1   
    39    19    72 1   
    40    20    21 1   
    41    20    73 1   
    42    20    74 1   
    43    21    22 ar  
    44    21    23 ar  
    45    22    24 ar  
    46    22    75 1   
    47    23    25 ar  
    48    23    76 1   
    49    24    26 ar  
    50    24    77 1   
    51    25    26 ar  
    52    25    78 1   
    53    26    79 1   
    54    27    28 1   
    55    27    29 1   
    56    27    31 1   
    57    30    31 1   
    58    30    44 1   
    59    30    80 1   
    60    31    32 1   
    61    31    81 1   
    62    32    33 1   
    63    32    82 1   
    64    32    83 1   
    65    33    34 ar  
    66    33    35 ar  
    67    34    36 ar  
    68    34    84 1   
    69    35    37 ar  
    70    35    85 1   
    71    36    38 ar  
    72    36    86 1   
    73    37    38 ar  
    74    37    87 1   
    75    38    88 1   
    76    39    40 1   
    77    39    89 1   
    78    39   105 1   
    79    40    41 1   
    80    40    44 1   
    81    40    90 1   
    82    41    42 1   
    83    41    43 1   
    84    41    91 1   
    85    42    92 1   
    86    42    93 1   
    87    42    94 1   
    88    43    95 1   
    89    43    96 1   
    90    43    97 1   
    91    44    45 2   
    92    46    47 1   
    93    46    53 1   
    94    46    98 1   
    95    46    99 1   
    96    47    48 ar  
    97    47    51 ar  
    98    48    49 ar  
    99    48   100 1   
   100    49    52 ar  
   101    49   101 1   
   102    50    51 ar  
   103    50    52 ar  
   104    50   102 1   
   105    51   103 1   
   106    52   104 1   
   107    53   105 1   
   108    54   105 2   
@<TRIPOS>SUBSTRUCTURE
     1 PHP         1 TEMP              0 ****  ****    0 ROOT
