@<TRIPOS>MOLECULE
PHP
  105   108     1     0     0
SMALL
bcc


@<TRIPOS>ATOM
      1 C1           1.0090    -5.0000     1.4020 c          1 PHP       0.752600
      2 O1           0.7390    -5.6030     0.3850 o          1 PHP      -0.602000
      3 OA1          2.1400    -4.3080     1.5860 os         1 PHP      -0.437400
      4 CB1          3.0790    -4.3060     0.5050 c3         1 PHP       0.207700
      5 CG1          4.2450    -3.4730     0.9420 ca         1 PHP      -0.091800
      6 CDB          4.3130    -2.1230     0.6140 ca         1 PHP      -0.102250
      7 CDL          5.2630    -4.0340     1.7100 ca         1 PHP      -0.102250
      8 CEB          5.3800    -1.3450     1.0420 ca         1 PHP      -0.137000
      9 CEL          6.3300    -3.2590     2.1410 ca         1 PHP      -0.137000
     10 CZ1          6.3900    -1.9120     1.8080 ca         1 PHP      -0.123000
     11 N2           0.2340    -4.9590     2.5040 ns         1 PHP      -0.542400
     12 CA2         -1.1210    -5.4350     2.4580 c3         1 PHP       0.041700
     13 CB2         -1.7080    -5.5760     3.8770 c3         1 PHP      -0.068700
     14 CGL         -0.8780    -6.5490     4.7080 c3         1 PHP      -0.090600
     15 CGM         -1.8900    -4.2410     4.5940 c3         1 PHP      -0.090600
     16 C2          -1.9970    -4.5040     1.6190 c          1 PHP       0.659100
     17 O2          -1.6900    -3.3390     1.4210 o          1 PHP      -0.633100
     18 N3          -3.1270    -5.0740     1.1730 ns         1 PHP      -0.521900
     19 CA3         -4.2390    -4.3310     0.6330 c3         1 PHP      -0.071500
     20 CB3         -4.6120    -4.8090    -0.7750 c3         1 PHP      -0.023100
     21 CG3         -3.4860    -4.6020    -1.7460 ca         1 PHP      -0.059800
     22 CDD         -3.4170    -3.4420    -2.5160 ca         1 PHP      -0.114500
     23 CDN         -2.4560    -5.5340    -1.8600 ca         1 PHP      -0.114500
     24 CED         -2.3520    -3.2170    -3.3770 ca         1 PHP      -0.131500
     25 CEN         -1.3850    -5.3110    -2.7140 ca         1 PHP      -0.131500
     26 CZ3         -1.3300    -4.1530    -3.4780 ca         1 PHP      -0.145000
     27 P3          -5.6370    -4.4970     1.8540 p5         1 PHP       1.041400
     28 O3          -5.1410    -4.1310     3.2320 o          1 PHP      -0.796500
     29 O4          -6.2690    -5.8530     1.6180 o          1 PHP      -0.796500
     30 N4          -7.8720    -3.1910     2.3800 ns         1 PHP      -0.521900
     31 CA4         -6.8710    -3.1950     1.3370 c3         1 PHP      -0.071500
     32 CB4         -6.3380    -1.7760     1.0680 c3         1 PHP      -0.023100
     33 CG4         -5.8730    -1.0280     2.2880 ca         1 PHP      -0.059800
     34 CDE         -6.7740    -0.2580     3.0200 ca         1 PHP      -0.114500
     35 CDO         -4.5500    -1.0830     2.7200 ca         1 PHP      -0.114500
     36 CEE         -6.3710     0.4350     4.1550 ca         1 PHP      -0.131500
     37 CEO         -4.1380    -0.3840     3.8460 ca         1 PHP      -0.131500
     38 CZ4         -5.0490     0.3740     4.5720 ca         1 PHP      -0.145000
     39 N5         -11.2660    -2.6290     3.2170 ns         1 PHP      -0.542400
     40 CA5        -10.0370    -3.3530     3.4290 c3         1 PHP       0.041700
     41 CB5        -10.2810    -4.8450     3.7640 c3         1 PHP      -0.068700
     42 CGF        -10.9890    -5.5990     2.6440 c3         1 PHP      -0.090600
     43 CGG         -9.0020    -5.5580     4.1890 c3         1 PHP      -0.090600
     44 C5          -9.1910    -3.1850     2.1710 c          1 PHP       0.659100
     45 O5          -9.7090    -3.0830     1.0660 o          1 PHP      -0.633100
     46 CB6        -14.0590    -1.0830     4.7310 c3         1 PHP       0.207700
     47 CG6        -15.1440    -0.3860     3.9690 ca         1 PHP      -0.091800
     48 CDG        -15.0320     0.9670     3.6610 ca         1 PHP      -0.102250
     49 CEG        -16.0200     1.6070     2.9260 ca         1 PHP      -0.137000
     50 CEQ        -17.2520    -0.4520     2.7940 ca         1 PHP      -0.137000
     51 CDQ        -16.2620    -1.0890     3.5300 ca         1 PHP      -0.102250
     52 CZ6        -17.1320     0.8980     2.4900 ca         1 PHP      -0.123000
     53 OA6        -13.1280    -1.5790     3.7620 os         1 PHP      -0.437400
     54 O6         -11.7710    -2.3060     5.4100 o          1 PHP      -0.602000
     55 HB11         2.6190    -3.8900    -0.3940 h1         1 PHP       0.053200
     56 HB12         3.3950    -5.3270     0.2800 h1         1 PHP       0.053200
     57 HD11         3.5280    -1.6760     0.0160 ha         1 PHP       0.134750
     58 HD12         5.2230    -5.0860     1.9680 ha         1 PHP       0.134750
     59 HE11         5.4250    -0.2970     0.7750 ha         1 PHP       0.127500
     60 HE12         7.1170    -3.7080     2.7330 ha         1 PHP       0.127500
     61 HZ1          7.2230    -1.3070     2.1420 ha         1 PHP       0.124500
     62 HN2          0.4890    -4.3140     3.2350 hn         1 PHP       0.340000
     63 HA2         -1.1240    -6.4310     2.0050 h1         1 PHP       0.076200
     64 HB2         -2.7060    -6.0050     3.7450 hc         1 PHP       0.064200
     65 HG21         0.1040    -6.1400     4.9490 hc         1 PHP       0.039700
     66 HG22        -1.3820    -6.7650     5.6510 hc         1 PHP       0.039700
     67 HG23        -0.7270    -7.4950     4.1860 hc         1 PHP       0.039700
     68 HG24        -2.6110    -3.6040     4.0830 hc         1 PHP       0.039700
     69 HG25        -2.2680    -4.4160     5.6020 hc         1 PHP       0.039700
     70 HG26        -0.9530    -3.6900     4.7010 hc         1 PHP       0.039700
     71 HN3         -3.2940    -6.0410     1.4080 hn         1 PHP       0.324000
     72 HA3         -3.9140    -3.2930     0.5710 h1         1 PHP       0.081200
     73 HB31        -4.9050    -5.8600    -0.7310 hc         1 PHP       0.047700
     74 HB32        -5.4940    -4.2560    -1.1110 hc         1 PHP       0.047700
     75 HD31        -4.2100    -2.7070    -2.4410 ha         1 PHP       0.130750
     76 HD32        -2.4880    -6.4420    -1.2720 ha         1 PHP       0.130750
     77 HE31        -2.3220    -2.3130    -3.9710 ha         1 PHP       0.118500
     78 HE32        -0.5920    -6.0440    -2.7820 ha         1 PHP       0.118500
     79 HZ3         -0.4970    -3.9800    -4.1480 ha         1 PHP       0.112500
     80 HN4         -7.5310    -3.2250     3.3300 hn         1 PHP       0.324000
     81 HA4         -7.3480    -3.5420     0.4180 h1         1 PHP       0.081200
     82 HB41        -7.1470    -1.2130     0.5950 hc         1 PHP       0.047700
     83 HB42        -5.5390    -1.8280     0.3260 hc         1 PHP       0.047700
     84 HD41        -7.8050    -0.1880     2.6940 ha         1 PHP       0.130750
     85 HD42        -3.8250    -1.6760     2.1790 ha         1 PHP       0.130750
     86 HE41        -7.0890     1.0280     4.7060 ha         1 PHP       0.118500
     87 HE42        -3.1030    -0.4350     4.1600 ha         1 PHP       0.118500
     88 HZ4         -4.7280     0.9160     5.4530 ha         1 PHP       0.112500
     89 HN5        -11.5830    -2.5140     2.2660 hn         1 PHP       0.340000
     90 HA5         -9.5100    -2.9060     4.2770 h1         1 PHP       0.076200
     91 HB5        -10.9470    -4.8290     4.6320 hc         1 PHP       0.064200
     92 HG51       -11.9080    -5.1000     2.3350 hc         1 PHP       0.039700
     93 HG52       -11.2610    -6.5980     2.9840 hc         1 PHP       0.039700
     94 HG53       -10.3550    -5.7130     1.7640 hc         1 PHP       0.039700
     95 HG54        -8.3000    -5.6930     3.3640 hc         1 PHP       0.039700
     96 HG55        -9.2420    -6.5490     4.5780 hc         1 PHP       0.039700
     97 HG56        -8.4840    -5.0160     4.9840 hc         1 PHP       0.039700
     98 HB61       -13.5620    -0.3950     5.4170 h1         1 PHP       0.053200
     99 HB62       -14.4660    -1.9110     5.3160 h1         1 PHP       0.053200
    100 HD61       -14.1680     1.5260     4.0030 ha         1 PHP       0.134750
    101 HE61       -15.9220     2.6600     2.6950 ha         1 PHP       0.127500
    102 HE62       -18.1180    -1.0090     2.4600 ha         1 PHP       0.127500
    103 HD62       -16.3630    -2.1410     3.7690 ha         1 PHP       0.134750
    104 HZ6        -17.9040     1.3960     1.9190 ha         1 PHP       0.124500
    105 C6         -12.0310    -2.1880     4.2290 c          1 PHP       0.752600
@<TRIPOS>BOND
     1     1     2 2   
     2     1     3 1   
     3     1    11 1   
     4     3     4 1   
     5     4     5 1   
     6     4    55 1   
     7     4    56 1   
     8     5     6 ar  
     9     5     7 ar  
    10     6     8 ar  
    11     6    57 1   
    12     7     9 ar  
    13     7    58 1   
    14     8    10 ar  
    15     8    59 1   
    16     9    10 ar  
    17     9    60 1   
    18    10    61 1   
    19    11    12 1   
    20    11    62 1   
    21    12    13 1   
    22    12    16 1   
    23    12    63 1   
    24    13    14 1   
    25    13    15 1   
    26    13    64 1   
    27    14    65 1   
    28    14    66 1   
    29    14    67 1   
    30    15    68 1   
    31    15    69 1   
    32    15    70 1   
    33    16    17 2   
    34    16    18 1   
    35    18    19 1   
    36    18    71 1   
    37    19    20 1   
    38    19    27 1   
    39    19    72 1   
    40    20    21 1   
    41    20    73 1   
    42    20    74 1   
    43    21    22 ar  
    44    21    23 ar  
    45    22    24 ar  
    46    22    75 1   
    47    23    25 ar  
    48    23    76 1   
    49    24    26 ar  
    50    24    77 1   
    51    25    26 ar  
    52    25    78 1   
    53    26    79 1   
    54    27    28 1   
    55    27    29 1   
    56    27    31 1   
    57    30    31 1   
    58    30    44 1   
    59    30    80 1   
    60    31    32 1   
    61    31    81 1   
    62    32    33 1   
    63    32    82 1   
    64    32    83 1   
    65    33    34 ar  
    66    33    35 ar  
    67    34    36 ar  
    68    34    84 1   
    69    35    37 ar  
    70    35    85 1   
    71    36    38 ar  
    72    36    86 1   
    73    37    38 ar  
    74    37    87 1   
    75    38    88 1   
    76    39    40 1   
    77    39    89 1   
    78    39   105 1   
    79    40    41 1   
    80    40    44 1   
    81    40    90 1   
    82    41    42 1   
    83    41    43 1   
    84    41    91 1   
    85    42    92 1   
    86    42    93 1   
    87    42    94 1   
    88    43    95 1   
    89    43    96 1   
    90    43    97 1   
    91    44    45 2   
    92    46    47 1   
    93    46    53 1   
    94    46    98 1   
    95    46    99 1   
    96    47    48 ar  
    97    47    51 ar  
    98    48    49 ar  
    99    48   100 1   
   100    49    52 ar  
   101    49   101 1   
   102    50    51 ar  
   103    50    52 ar  
   104    50   102 1   
   105    51   103 1   
   106    52   104 1   
   107    53   105 1   
   108    54   105 2   
@<TRIPOS>SUBSTRUCTURE
     1 PHP         1 TEMP              0 ****  ****    0 ROOT
