@<TRIPOS>MOLECULE
PHQ
   18    18     1     0     0
SMALL
bcc


@<TRIPOS>ATOM
      1 C1          -2.1830    -0.3440     0.0020 c          1 PHQ       0.661700
      2 O1          -2.6800    -1.4230    -0.0040 o          1 PHQ      -0.489000
      3 O2          -0.9200    -0.0250    -0.0080 os         1 PHQ      -0.391900
      4 C2           0.0340    -1.1230    -0.0300 c3         1 PHQ       0.193700
      5 C3           1.3960    -0.5100    -0.0320 ca         1 PHQ      -0.108300
      6 C4           2.0270    -0.1950     1.1690 ca         1 PHQ      -0.097000
      7 C5           3.2810     0.3990     1.1680 ca         1 PHQ      -0.132000
      8 C6           3.9150     0.6820    -0.0350 ca         1 PHQ      -0.109000
      9 C7           3.2920     0.3680    -1.2360 ca         1 PHQ      -0.132000
     10 C8           2.0370    -0.2240    -1.2330 ca         1 PHQ      -0.097000
     11 CL1         -3.1370     1.1210     0.0310 cl         1 PHQ      -0.094600
     12 H21         -0.1260    -1.7480     0.8510 h1         1 PHQ       0.062200
     13 H22         -0.1390    -1.7250    -0.9230 h1         1 PHQ       0.062200
     14 H41          1.5380    -0.4180     2.1090 ha         1 PHQ       0.133500
     15 H51          3.7640     0.6360     2.1070 ha         1 PHQ       0.135000
     16 H61          4.8940     1.1440    -0.0360 ha         1 PHQ       0.134000
     17 H71          3.7850     0.5810    -2.1750 ha         1 PHQ       0.135000
     18 H81          1.5570    -0.4700    -2.1720 ha         1 PHQ       0.133500
@<TRIPOS>BOND
     1     1     2 2   
     2     1     3 1   
     3     1    11 1   
     4     3     4 1   
     5     4     5 1   
     6     4    12 1   
     7     4    13 1   
     8     5     6 ar  
     9     5    10 ar  
    10     6     7 ar  
    11     6    14 1   
    12     7     8 ar  
    13     7    15 1   
    14     8     9 ar  
    15     8    16 1   
    16     9    10 ar  
    17     9    17 1   
    18    10    18 1   
@<TRIPOS>SUBSTRUCTURE
     1 PHQ         1 TEMP              0 ****  ****    0 ROOT
