@<TRIPOS>MOLECULE
PHQ
   18    18     1     0     0
SMALL
No Charge or Current Charge


@<TRIPOS>ATOM
      1 C1          -2.2860    -0.3850    -0.0740 c          1 PHQ       0.612700
      2 O1          -2.7490    -1.5120     0.0490 o          1 PHQ      -0.440000
      3 O2          -0.9630    -0.0350    -0.0580 os         1 PHQ      -0.415100
      4 C2           0.0020    -1.0990    -0.0450 c3         1 PHQ       0.216900
      5 C3           1.3940    -0.4800    -0.0400 ca         1 PHQ      -0.108300
      6 C4           2.0290    -0.1690     1.1800 ca         1 PHQ      -0.079000
      7 C5           3.3140     0.4020     1.1840 ca         1 PHQ      -0.114000
      8 C6           3.9710     0.6670    -0.0300 ca         1 PHQ      -0.091000
      9 C7           3.3410     0.3610    -1.2480 ca         1 PHQ      -0.114000
     10 C8           2.0560    -0.2100    -1.2540 ca         1 PHQ      -0.079000
     11 Cl1         -3.2520     1.1510     0.1350 cl         1 PHQ      -0.094600
     12 H21         -0.1230    -1.7280     0.8470 h1         1 PHQ       0.062200
     13 H22         -0.1120    -1.7400    -0.9290 h1         1 PHQ       0.062200
     14 H41          1.5260    -0.3690     2.1240 ha         1 PHQ       0.115500
     15 H51          3.7990     0.6400     2.1280 ha         1 PHQ       0.117000
     16 H61          4.9650     1.1090    -0.0260 ha         1 PHQ       0.116000
     17 H71          3.8480     0.5670    -2.1880 ha         1 PHQ       0.117000
     18 H81          1.5760    -0.4410    -2.2020 ha         1 PHQ       0.115500
@<TRIPOS>BOND
     1     1     2 2   
     2     1     3 1   
     3     1    11 1   
     4     3     4 1   
     5     4     5 1   
     6     4    12 1   
     7     4    13 1   
     8     5     6 ar  
     9     5    10 ar  
    10     6     7 ar  
    11     6    14 1   
    12     7     8 ar  
    13     7    15 1   
    14     8     9 ar  
    15     8    16 1   
    16     9    10 ar  
    17     9    17 1   
    18    10    18 1   
@<TRIPOS>SUBSTRUCTURE
     1 PHQ         1 TEMP              0 ****  ****    0 ROOT
