@<TRIPOS>MOLECULE
PHS
    5     4     1     0     0
SMALL
No Charge or Current Charge


@<TRIPOS>ATOM
      1 P           35.0430    -1.3650    -1.5360 p5         1 PHS       1.198900
      2 O1P         35.5370    -1.8240    -2.8620 o          1 PHS      -0.952500
      3 O2P         34.4670    -2.4940    -0.7570 o          1 PHS      -0.952500
      4 O3P         36.1180    -0.6780    -0.7710 o          1 PHS      -0.952500
      5 HP1         34.0060    -0.4240    -1.7640 hp         1 PHS      -0.341400
@<TRIPOS>BOND
     1     1     2 1   
     2     1     3 1   
     3     1     4 1   
     4     1     5 1   
@<TRIPOS>SUBSTRUCTURE
     1 PHS         1 TEMP              0 ****  ****    0 ROOT
