@<TRIPOS>MOLECULE
PHS
    5     4     1     0     0
SMALL
bcc


@<TRIPOS>ATOM
      1 P           35.0870    -1.4040    -1.5260 p5         1 PHS       1.198900
      2 O1P         35.5300    -1.8210    -2.9310 o          1 PHS      -0.952500
      3 O2P         34.4080    -2.5220    -0.7290 o          1 PHS      -0.952500
      4 O3P         36.1380    -0.6140    -0.7420 o          1 PHS      -0.952500
      5 HP1         34.0080    -0.4240    -1.7620 hp         1 PHS      -0.341400
@<TRIPOS>BOND
     1     1     2 1   
     2     1     3 1   
     3     1     4 1   
     4     1     5 1   
@<TRIPOS>SUBSTRUCTURE
     1 PHS         1 TEMP              0 ****  ****    0 ROOT
