@<TRIPOS>MOLECULE
PHT
   16    16     1     0     0
SMALL
bcc


@<TRIPOS>ATOM
      1 O8           0.7880     1.1640     1.8930 o          1 PHT      -0.845300
      2 O9           2.1500    -0.5850     1.6330 o          1 PHT      -0.845300
      3 O11         -1.3980    -0.9760     1.5250 o          1 PHT      -0.845300
      4 O12         -2.7150     0.4490     0.4250 o          1 PHT      -0.845300
      5 C7           1.2640     0.2070     1.2560 c          1 PHT       0.946700
      6 C1          -0.9850    -0.0820    -1.8180 ca         1 PHT      -0.142500
      7 C2          -0.5950    -0.0480    -0.4810 ca         1 PHT      -0.092600
      8 C3           0.7660     0.0440    -0.1690 ca         1 PHT      -0.092600
      9 C4           1.6980     0.0740    -1.2040 ca         1 PHT      -0.142500
     10 C5           1.3010     0.0350    -2.5340 ca         1 PHT      -0.196000
     11 C6          -0.0500    -0.0460    -2.8440 ca         1 PHT      -0.196000
     12 H1          -2.0380    -0.1500    -2.0600 ha         1 PHT       0.106000
     13 H4           2.7540     0.1420    -0.9690 ha         1 PHT       0.106000
     14 H5           2.0420     0.0690    -3.3230 ha         1 PHT       0.068500
     15 H6          -0.3730    -0.0830    -3.8770 ha         1 PHT       0.068500
     16 C10         -1.6580    -0.1920     0.5950 c          1 PHT       0.946700
@<TRIPOS>BOND
     1     1     5 1   
     2     2     5 1   
     3     3    16 1   
     4     4    16 1   
     5     5     8 1   
     6     6     7 ar  
     7     6    11 ar  
     8     6    12 1   
     9     7     8 ar  
    10     7    16 1   
    11     8     9 ar  
    12     9    10 ar  
    13     9    13 1   
    14    10    11 ar  
    15    10    14 1   
    16    11    15 1   
@<TRIPOS>SUBSTRUCTURE
     1 PHT         1 TEMP              0 ****  ****    0 ROOT
