@<TRIPOS>MOLECULE
PHT
   16    16     1     0     0
SMALL
No Charge or Current Charge


@<TRIPOS>ATOM
      1 O8           0.8090     1.1120     1.9470 o          1 PHT      -0.740000
      2 O9           2.1400    -0.5550     1.6510 o          1 PHT      -0.740000
      3 O11         -1.5490    -1.0650     1.4300 o          1 PHT      -0.740000
      4 O12         -2.6140     0.5910     0.5590 o          1 PHT      -0.740000
      5 C7           1.2490     0.1930     1.2690 c          1 PHT       0.736100
      6 C1          -1.0010    -0.1250    -1.8320 ca         1 PHT      -0.124500
      7 C2          -0.6020    -0.0600    -0.4770 ca         1 PHT      -0.092600
      8 C3           0.7770     0.0710    -0.1640 ca         1 PHT      -0.092600
      9 C4           1.7230     0.1130    -1.2140 ca         1 PHT      -0.124500
     10 C5           1.3120     0.0410    -2.5540 ca         1 PHT      -0.178000
     11 C6          -0.0500    -0.0740    -2.8630 ca         1 PHT      -0.178000
     12 H1          -2.0550    -0.2260    -2.0800 ha         1 PHT       0.088000
     13 H4           2.7810     0.2150    -0.9840 ha         1 PHT       0.088000
     14 H5           2.0490     0.0790    -3.3520 ha         1 PHT       0.050500
     15 H6          -0.3700    -0.1280    -3.9010 ha         1 PHT       0.050500
     16 C10         -1.6490    -0.1600     0.6120 c          1 PHT       0.736100
@<TRIPOS>BOND
     1     1     5 1   
     2     2     5 1   
     3     3    16 1   
     4     4    16 1   
     5     5     8 1   
     6     6     7 ar  
     7     6    11 ar  
     8     6    12 1   
     9     7     8 ar  
    10     7    16 1   
    11     8     9 ar  
    12     9    10 ar  
    13     9    13 1   
    14    10    11 ar  
    15    10    14 1   
    16    11    15 1   
@<TRIPOS>SUBSTRUCTURE
     1 PHT         1 TEMP              0 ****  ****    0 ROOT
