@<TRIPOS>MOLECULE
PHU
   18    18     1     0     0
SMALL
No Charge or Current Charge


@<TRIPOS>ATOM
      1 C1          -2.2720    -0.1820    -0.1090 c          1 PHU       0.653100
      2 C2           0.2600     0.2280    -0.0110 ca         1 PHU      -0.007000
      3 C3           0.7280    -1.1030    -0.0940 ca         1 PHU      -0.149000
      4 C4           1.1980     1.2740     0.0900 ca         1 PHU      -0.149000
      5 C5           2.5770     1.0030     0.1070 ca         1 PHU      -0.084000
      6 C6           2.1070    -1.3740    -0.0770 ca         1 PHU      -0.084000
      7 C7           3.0320    -0.3220     0.0240 ca         1 PHU      -0.137000
      8 N1          -1.1190     0.5790    -0.0220 ns         1 PHU      -0.166000
      9 N2          -3.4020     0.5520    -0.0860 nt         1 PHU      -0.609000
     10 O1          -2.3280    -1.3970    -0.1990 o          1 PHU      -0.619100
     11 H3           0.0410    -1.9400    -0.1730 ha         1 PHU       0.124500
     12 H4           0.8570     2.3050     0.1550 ha         1 PHU       0.124500
     13 H5           3.2910     1.8200     0.1850 ha         1 PHU       0.112500
     14 H6           2.4600    -2.4020    -0.1410 ha         1 PHU       0.112500
     15 H7           4.0990    -0.5340     0.0370 ha         1 PHU       0.114000
     16 HN1         -1.2830     1.5740     0.0450 hn         1 PHU       0.144000
     17 HN2         -3.3570     1.5570    -0.0110 hn         1 PHU       0.310000
     18 HN2A        -4.2930     0.0820    -0.1440 hn         1 PHU       0.310000
@<TRIPOS>BOND
     1     1     8 1   
     2     1     9 1   
     3     1    10 2   
     4     2     3 ar  
     5     2     4 ar  
     6     2     8 1   
     7     3     6 ar  
     8     3    11 1   
     9     4     5 ar  
    10     4    12 1   
    11     5     7 ar  
    12     5    13 1   
    13     6     7 ar  
    14     6    14 1   
    15     7    15 1   
    16     8    16 1   
    17     9    17 1   
    18     9    18 1   
@<TRIPOS>SUBSTRUCTURE
     1 PHU         1 TEMP              0 ****  ****    0 ROOT
