@<TRIPOS>MOLECULE
PHU
   18    18     1     0     0
SMALL
abcg2


@<TRIPOS>ATOM
      1 C1          -2.2000    -0.1450     0.0800 c          1 PHU       0.653100
      2 C2           0.2490     0.2450    -0.0640 ca         1 PHU      -0.007000
      3 C3           0.6980    -1.0670    -0.2350 ca         1 PHU      -0.149000
      4 C4           1.1910     1.2540     0.1560 ca         1 PHU      -0.149000
      5 C5           2.5440     0.9640     0.2070 ca         1 PHU      -0.084000
      6 C6           2.0570    -1.3450    -0.1730 ca         1 PHU      -0.084000
      7 C7           2.9900    -0.3410     0.0470 ca         1 PHU      -0.137000
      8 N1          -1.0890     0.6300    -0.1440 ns         1 PHU      -0.166000
      9 N2          -3.3660     0.5460    -0.0010 nt         1 PHU      -0.609000
     10 O1          -2.1520    -1.3330     0.3590 o          1 PHU      -0.619100
     11 H3           0.0020    -1.8690    -0.4220 ha         1 PHU       0.124500
     12 H4           0.8570     2.2770     0.2910 ha         1 PHU       0.124500
     13 H5           3.2510     1.7660     0.3770 ha         1 PHU       0.112500
     14 H6           2.3850    -2.3670    -0.3090 ha         1 PHU       0.112500
     15 H7           4.0460    -0.5700     0.0900 ha         1 PHU       0.114000
     16 HN1         -1.2380     1.6250    -0.2170 hn         1 PHU       0.144000
     17 HN2         -3.4130     1.4400    -0.4620 hn         1 PHU       0.310000
     18 HN2A        -4.2170     0.0100    -0.0050 hn         1 PHU       0.310000
@<TRIPOS>BOND
     1     1     8 1   
     2     1     9 1   
     3     1    10 2   
     4     2     3 ar  
     5     2     4 ar  
     6     2     8 1   
     7     3     6 ar  
     8     3    11 1   
     9     4     5 ar  
    10     4    12 1   
    11     5     7 ar  
    12     5    13 1   
    13     6     7 ar  
    14     6    14 1   
    15     7    15 1   
    16     8    16 1   
    17     9    17 1   
    18     9    18 1   
@<TRIPOS>SUBSTRUCTURE
     1 PHU         1 TEMP              0 ****  ****    0 ROOT
