@<TRIPOS>MOLECULE
PHV
   83    86     1     0     0
SMALL
No Charge or Current Charge


@<TRIPOS>ATOM
      1 C14         -2.9980     0.0020     1.3320 c          1 PHV       0.640100
      2 O14         -3.6280     0.7190     2.0930 o          1 PHV      -0.564000
      3 O15         -3.0980    -1.3510     1.2480 os         1 PHV      -0.449100
      4 C16         -4.0650    -1.9960     2.0910 c3         1 PHV       0.229900
      5 C41         -4.0200    -3.4930     1.8160 ca         1 PHV      -0.086300
      6 C42         -3.1910    -4.3340     2.5860 ca         1 PHV      -0.085000
      7 C43         -3.1510    -5.7160     2.3310 ca         1 PHV      -0.118000
      8 C44         -3.9380    -6.2650     1.3050 ca         1 PHV      -0.108000
      9 C45         -4.7640    -5.4320     0.5330 ca         1 PHV      -0.118000
     10 C46         -4.8050    -4.0490     0.7870 ca         1 PHV      -0.085000
     11 C22         -4.7140     2.5300    -0.3770 ca         1 PHV      -0.094500
     12 C23         -6.0740     2.1990    -0.5080 ca         1 PHV      -0.114000
     13 C24         -6.4920     1.3360    -1.5330 ca         1 PHV      -0.117000
     14 C25         -5.5500     0.8060    -2.4290 ca         1 PHV      -0.114000
     15 C26         -4.1900     1.1360    -2.2990 ca         1 PHV      -0.094500
     16 C21         -3.7590     1.9990    -1.2690 ca         1 PHV      -0.059300
     17 C12         -2.2730     2.3500    -1.1280 c3         1 PHV       0.000900
     18 C11         -1.6660     1.8400     0.2190 c3         1 PHV       0.046700
     19 C10         -0.1140     2.0090     0.3180 c          1 PHV       0.594100
     20 O10          0.5560     2.4120    -0.6260 o          1 PHV      -0.542100
     21 N13         -2.0280     0.4240     0.4690 ns         1 PHV      -0.462900
     22 C31         -2.0640     3.8490    -1.3950 ca         1 PHV      -0.059300
     23 C36         -2.1150     4.8180    -0.3660 ca         1 PHV      -0.094500
     24 C35         -1.9240     6.1790    -0.6590 ca         1 PHV      -0.114000
     25 C34         -1.6850     6.5910    -1.9790 ca         1 PHV      -0.117000
     26 C33         -1.6410     5.6400    -3.0090 ca         1 PHV      -0.114000
     27 C32         -1.8320     4.2780    -2.7190 ca         1 PHV      -0.094500
     28 N9           0.5270     1.6000     1.5110 n          1 PHV      -0.386800
     29 C8           2.0110     1.5170     1.6360 c5         1 PHV       0.016700
     30 C7           2.7120     0.5350     0.6390 c          1 PHV       0.577100
     31 O7           2.1840    -0.3480    -0.0330 o          1 PHV      -0.680100
     32 C8A          2.1570     0.9430     3.0770 c5         1 PHV      -0.085400
     33 C8B          0.9920     1.6420     3.8150 c5         1 PHV      -0.096400
     34 C8C         -0.1710     1.4650     2.8080 c5         1 PHV       0.111000
     35 P            6.5850     1.2010    -0.5320 p5         1 PHV       1.279500
     36 C1           7.4910    -5.7250    -0.4730 c3         1 PHV       0.158900
     37 C2           6.4470    -3.6150     0.0560 c3         1 PHV       0.158600
     38 O2           7.2050    -4.3820    -0.8920 os         1 PHV      -0.449000
     39 C4           5.4080    -1.2890     0.3900 c3         1 PHV      -0.034400
     40 C5           5.0880     0.1100    -0.2080 c3         1 PHV      -0.196300
     41 N6           4.0670     0.8150     0.6130 ns         1 PHV      -0.395900
     42 OP3          6.1390     2.6250    -0.5130 o          1 PHV      -0.917167
     43 H16         -3.8430    -1.8090     3.1510 h1         1 PHV       0.051200
     44 H16A        -5.0750    -1.6170     1.8850 h1         1 PHV       0.051200
     45 H42         -2.5760    -3.9160     3.3800 ha         1 PHV       0.116500
     46 H43         -2.5100    -6.3600     2.9280 ha         1 PHV       0.107500
     47 H44         -3.9070    -7.3350     1.1080 ha         1 PHV       0.104000
     48 H45         -5.3730    -5.8550    -0.2630 ha         1 PHV       0.107500
     49 H46         -5.4450    -3.4100     0.1830 ha         1 PHV       0.116500
     50 H22         -4.4050     3.1950     0.4250 ha         1 PHV       0.115500
     51 H23         -6.8020     2.6110     0.1870 ha         1 PHV       0.103000
     52 H24         -7.5450     1.0800    -1.6340 ha         1 PHV       0.099500
     53 H25         -5.8720     0.1380    -3.2240 ha         1 PHV       0.103000
     54 H26         -3.4720     0.7160    -2.9990 ha         1 PHV       0.115500
     55 H12         -1.7310     1.8020    -1.9090 hc         1 PHV       0.090700
     56 H11         -2.0910     2.4330     1.0350 h1         1 PHV       0.078700
     57 HN13        -1.5760    -0.3050    -0.0690 hn         1 PHV       0.346500
     58 H36         -2.3100     4.5330     0.6630 ha         1 PHV       0.115500
     59 H35         -1.9640     6.9160     0.1410 ha         1 PHV       0.103000
     60 H34         -1.5380     7.6450    -2.2030 ha         1 PHV       0.099500
     61 H33         -1.4610     5.9570    -4.0340 ha         1 PHV       0.103000
     62 H32         -1.8000     3.5530    -3.5290 ha         1 PHV       0.115500
     63 H8           2.4600     2.5160     1.5450 h1         1 PHV       0.078700
     64 H8A          2.0300    -0.1470     3.0920 hc         1 PHV       0.060700
     65 H8AA         3.1340     1.1640     3.5220 hc         1 PHV       0.060700
     66 H8B          0.7740     1.1930     4.7900 hc         1 PHV       0.034700
     67 H8BA         1.2110     2.7030     3.9820 hc         1 PHV       0.034700
     68 H8C         -0.9500     2.2240     2.9530 h1         1 PHV       0.037200
     69 H8CA        -0.6260     0.4700     2.8990 h1         1 PHV       0.037200
     70 H1           6.5620    -6.2850    -0.3020 h1         1 PHV       0.004033
     71 H1A          8.0700    -6.2480    -1.2440 h1         1 PHV       0.004033
     72 H1B          8.0760    -5.7260     0.4560 h1         1 PHV       0.004033
     73 H2           5.4760    -4.0900     0.2490 h1         1 PHV       0.001200
     74 H2A          6.9900    -3.5300     1.0070 h1         1 PHV       0.001200
     75 H3           7.2040    -1.7620    -0.7450 hc         1 PHV       0.079200
     76 H3A          5.7070    -2.3120    -1.5010 hc         1 PHV       0.079200
     77 H4           4.4660    -1.8000     0.6240 hc         1 PHV       0.002700
     78 H4A          5.9360    -1.1680     1.3430 hc         1 PHV       0.002700
     79 H5           4.6520    -0.0380    -1.2030 h1         1 PHV       0.051700
     80 HN6          4.3770     1.6040     1.1710 hn         1 PHV       0.340500
     81 OP1          7.6040     0.9890     0.5360 o          1 PHV      -0.917167
     82 C3           6.2260    -2.2130    -0.5410 c3         1 PHV      -0.089400
     83 OP2          7.1610     0.8700    -1.8680 o          1 PHV      -0.917167
@<TRIPOS>BOND
     1     1     2 2   
     2     1     3 1   
     3     1    21 1   
     4     3     4 1   
     5     4     5 1   
     6     4    43 1   
     7     4    44 1   
     8     5     6 ar  
     9     5    10 ar  
    10     6     7 ar  
    11     6    45 1   
    12     7     8 ar  
    13     7    46 1   
    14     8     9 ar  
    15     8    47 1   
    16     9    10 ar  
    17     9    48 1   
    18    10    49 1   
    19    11    12 ar  
    20    11    16 ar  
    21    11    50 1   
    22    12    13 ar  
    23    12    51 1   
    24    13    14 ar  
    25    13    52 1   
    26    14    15 ar  
    27    14    53 1   
    28    15    16 ar  
    29    15    54 1   
    30    16    17 1   
    31    17    18 1   
    32    17    22 1   
    33    17    55 1   
    34    18    19 1   
    35    18    21 1   
    36    18    56 1   
    37    19    20 2   
    38    19    28 1   
    39    21    57 1   
    40    22    23 ar  
    41    22    27 ar  
    42    23    24 ar  
    43    23    58 1   
    44    24    25 ar  
    45    24    59 1   
    46    25    26 ar  
    47    25    60 1   
    48    26    27 ar  
    49    26    61 1   
    50    27    62 1   
    51    28    29 1   
    52    28    34 1   
    53    29    30 1   
    54    29    32 1   
    55    29    63 1   
    56    30    31 2   
    57    30    41 1   
    58    32    33 1   
    59    32    64 1   
    60    32    65 1   
    61    33    34 1   
    62    33    66 1   
    63    33    67 1   
    64    34    68 1   
    65    34    69 1   
    66    35    40 1   
    67    35    42 1   
    68    35    81 1   
    69    35    83 1   
    70    36    38 1   
    71    36    70 1   
    72    36    71 1   
    73    36    72 1   
    74    37    38 1   
    75    37    73 1   
    76    37    74 1   
    77    37    82 1   
    78    39    40 1   
    79    39    77 1   
    80    39    78 1   
    81    39    82 1   
    82    40    41 1   
    83    40    79 1   
    84    41    80 1   
    85    75    82 1   
    86    76    82 1   
@<TRIPOS>SUBSTRUCTURE
     1 PHV         1 TEMP              0 ****  ****    0 ROOT
