@<TRIPOS>MOLECULE
PHV
   83    86     1     0     0
SMALL
bcc


@<TRIPOS>ATOM
      1 C14         -2.8040    -0.6150     1.1550 c          1 PHV       0.756100
      2 O14         -3.2780    -0.0820     2.1340 o          1 PHV      -0.613000
      3 O15         -3.1310    -1.8400     0.7330 os         1 PHV      -0.425900
      4 C16         -4.1940    -2.5050     1.4210 c3         1 PHV       0.206700
      5 C41         -4.6030    -3.6750     0.5780 ca         1 PHV      -0.086300
      6 C42         -4.4240    -4.9770     1.0290 ca         1 PHV      -0.103000
      7 C43         -4.8130    -6.0570     0.2450 ca         1 PHV      -0.136000
      8 C44         -5.3770    -5.8410    -1.0040 ca         1 PHV      -0.126000
      9 C45         -5.5570    -4.5410    -1.4640 ca         1 PHV      -0.136000
     10 C46         -5.1730    -3.4660    -0.6770 ca         1 PHV      -0.103000
     11 C22         -4.5400     2.6000     0.2990 ca         1 PHV      -0.112500
     12 C23         -5.8920     2.3390     0.4590 ca         1 PHV      -0.132000
     13 C24         -6.5050     1.3400    -0.2860 ca         1 PHV      -0.135000
     14 C25         -5.7560     0.6100    -1.1970 ca         1 PHV      -0.132000
     15 C26         -4.4020     0.8760    -1.3550 ca         1 PHV      -0.112500
     16 C21         -3.7760     1.8710    -0.6090 ca         1 PHV      -0.059300
     17 C12         -2.2830     2.0800    -0.7490 c3         1 PHV       0.000900
     18 C11         -1.5440     1.3290     0.3770 c3         1 PHV       0.046700
     19 C10         -0.0310     1.4620     0.2040 c          1 PHV       0.661100
     20 O10          0.4670     1.3270    -0.9060 o          1 PHV      -0.542100
     21 N13         -1.8570    -0.0790     0.3510 ns         1 PHV      -0.529900
     22 C31         -1.8870     3.5340    -0.8340 ca         1 PHV      -0.059300
     23 C36         -1.6310     4.3150     0.2910 ca         1 PHV      -0.112500
     24 C35         -1.2770     5.6530     0.1660 ca         1 PHV      -0.132000
     25 C34         -1.1730     6.2340    -1.0900 ca         1 PHV      -0.135000
     26 C33         -1.4270     5.4660    -2.2200 ca         1 PHV      -0.132000
     27 C32         -1.7780     4.1310    -2.0890 ca         1 PHV      -0.112500
     28 N9           0.7120     1.6900     1.2920 n          1 PHV      -0.453800
     29 C8           2.1620     1.7110     1.1770 c5         1 PHV       0.016700
     30 C7           2.7010     0.3970     0.6200 c          1 PHV       0.644100
     31 O7           2.1750    -0.6690     0.9140 o          1 PHV      -0.680100
     32 C8A          2.6430     1.9100     2.6240 c5         1 PHV      -0.085400
     33 C8B          1.4500     2.5500     3.3220 c5         1 PHV      -0.096400
     34 C8C          0.2620     1.8640     2.6680 c5         1 PHV       0.111000
     35 P            5.3550     0.0660    -2.2470 p5         1 PHV       1.121700
     36 C1           8.7140    -4.4490     1.8840 c3         1 PHV       0.135700
     37 C2           7.2400    -2.7610     1.2120 c3         1 PHV       0.135400
     38 O2           7.7740    -4.0340     0.9290 os         1 PHV      -0.402600
     39 C4           5.6310    -1.0060     0.4130 c3         1 PHV      -0.034400
     40 C5           4.6060    -0.5650    -0.6360 c3         1 PHV      -0.038500
     41 N6           3.8030     0.5270    -0.1150 ns         1 PHV      -0.462900
     42 OP3          4.1890     0.1050    -3.2380 o          1 PHV      -0.917167
     43 H16         -3.8600    -2.8330     2.4080 h1         1 PHV       0.051200
     44 H16A        -5.0330    -1.8190     1.5590 h1         1 PHV       0.051200
     45 H42         -3.9790    -5.1540     2.0010 ha         1 PHV       0.134500
     46 H43         -4.6700    -7.0660     0.6100 ha         1 PHV       0.125500
     47 H44         -5.6780    -6.6810    -1.6170 ha         1 PHV       0.122000
     48 H45         -6.0010    -4.3650    -2.4350 ha         1 PHV       0.125500
     49 H46         -5.3240    -2.4570    -1.0410 ha         1 PHV       0.134500
     50 H22         -4.0800     3.3830     0.8900 ha         1 PHV       0.133500
     51 H23         -6.4700     2.9160     1.1700 ha         1 PHV       0.121000
     52 H24         -7.5610     1.1360    -0.1600 ha         1 PHV       0.117500
     53 H25         -6.2260    -0.1640    -1.7900 ha         1 PHV       0.121000
     54 H26         -3.8230     0.3010    -2.0690 ha         1 PHV       0.133500
     55 H12         -1.9780     1.6100    -1.6880 hc         1 PHV       0.090700
     56 H11         -1.8720     1.7070     1.3420 h1         1 PHV       0.078700
     57 HN13        -1.6050    -0.5870    -0.4840 hn         1 PHV       0.346500
     58 H36         -1.7120     3.8990     1.2880 ha         1 PHV       0.133500
     59 H35         -1.0830     6.2390     1.0540 ha         1 PHV       0.121000
     60 H34         -0.8950     7.2750    -1.1880 ha         1 PHV       0.117500
     61 H33         -1.3450     5.9060    -3.2050 ha         1 PHV       0.121000
     62 H32         -1.9670     3.5380    -2.9760 ha         1 PHV       0.133500
     63 H8           2.4740     2.5530     0.5500 h1         1 PHV       0.078700
     64 H8A          2.8670     0.9450     3.0840 hc         1 PHV       0.060700
     65 H8AA         3.5450     2.5180     2.6660 hc         1 PHV       0.060700
     66 H8B          1.4630     2.4130     4.4020 hc         1 PHV       0.034700
     67 H8BA         1.4150     3.6220     3.1180 hc         1 PHV       0.034700
     68 H8C         -0.6380     2.4730     2.7290 h1         1 PHV       0.037200
     69 H8CA         0.0500     0.8960     3.1330 h1         1 PHV       0.037200
     70 H1           8.2760    -4.5240     2.8880 h1         1 PHV       0.004033
     71 H1A          9.0810    -5.4340     1.5960 h1         1 PHV       0.004033
     72 H1B          9.5710    -3.7670     1.9470 h1         1 PHV       0.004033
     73 H2           6.7690    -2.7560     2.2070 h1         1 PHV       0.001200
     74 H2A          8.0430    -2.0080     1.2450 h1         1 PHV       0.001200
     75 H3           6.6860    -2.3850    -0.8350 hc         1 PHV       0.079200
     76 H3A          5.4210    -3.1280     0.1410 hc         1 PHV       0.079200
     77 H4           5.1540    -1.0120     1.4010 hc         1 PHV       0.002700
     78 H4A          6.4290    -0.2570     0.4670 hc         1 PHV       0.002700
     79 H5           3.9350    -1.4050    -0.8410 h1         1 PHV       0.051700
     80 HN6          4.1580     1.4500    -0.3220 hn         1 PHV       0.340500
     81 OP1          5.8710     1.4590    -1.8400 o          1 PHV      -0.917167
     82 C3           6.2250    -2.3840     0.1530 c3         1 PHV      -0.089400
     83 OP2          6.4630    -0.9180    -2.6330 o          1 PHV      -0.917167
@<TRIPOS>BOND
     1     1     2 2   
     2     1     3 1   
     3     1    21 1   
     4     3     4 1   
     5     4     5 1   
     6     4    43 1   
     7     4    44 1   
     8     5     6 ar  
     9     5    10 ar  
    10     6     7 ar  
    11     6    45 1   
    12     7     8 ar  
    13     7    46 1   
    14     8     9 ar  
    15     8    47 1   
    16     9    10 ar  
    17     9    48 1   
    18    10    49 1   
    19    11    12 ar  
    20    11    16 ar  
    21    11    50 1   
    22    12    13 ar  
    23    12    51 1   
    24    13    14 ar  
    25    13    52 1   
    26    14    15 ar  
    27    14    53 1   
    28    15    16 ar  
    29    15    54 1   
    30    16    17 1   
    31    17    18 1   
    32    17    22 1   
    33    17    55 1   
    34    18    19 1   
    35    18    21 1   
    36    18    56 1   
    37    19    20 2   
    38    19    28 1   
    39    21    57 1   
    40    22    23 ar  
    41    22    27 ar  
    42    23    24 ar  
    43    23    58 1   
    44    24    25 ar  
    45    24    59 1   
    46    25    26 ar  
    47    25    60 1   
    48    26    27 ar  
    49    26    61 1   
    50    27    62 1   
    51    28    29 1   
    52    28    34 1   
    53    29    30 1   
    54    29    32 1   
    55    29    63 1   
    56    30    31 2   
    57    30    41 1   
    58    32    33 1   
    59    32    64 1   
    60    32    65 1   
    61    33    34 1   
    62    33    66 1   
    63    33    67 1   
    64    34    68 1   
    65    34    69 1   
    66    35    40 1   
    67    35    42 1   
    68    35    81 1   
    69    35    83 1   
    70    36    38 1   
    71    36    70 1   
    72    36    71 1   
    73    36    72 1   
    74    37    38 1   
    75    37    73 1   
    76    37    74 1   
    77    37    82 1   
    78    39    40 1   
    79    39    77 1   
    80    39    78 1   
    81    39    82 1   
    82    40    41 1   
    83    40    79 1   
    84    41    80 1   
    85    75    82 1   
    86    76    82 1   
@<TRIPOS>SUBSTRUCTURE
     1 PHV         1 TEMP              0 ****  ****    0 ROOT
