@<TRIPOS>MOLECULE
PHX
   33    34     1     0     0
SMALL
No Charge or Current Charge


@<TRIPOS>ATOM
      1 CAC         -4.9650    -1.0690    -0.1190 ca         1 PHX      -0.079000
      2 CAB         -6.3690    -0.9950    -0.1200 ca         1 PHX      -0.123000
      3 CAM         -7.0100     0.2510    -0.0290 ca         1 PHX      -0.108000
      4 CAQ         -6.2460     1.4240     0.0620 ca         1 PHX      -0.123000
      5 CAR         -4.8420     1.3540     0.0630 ca         1 PHX      -0.079000
      6 CAN         -4.1830     0.1060    -0.0280 ca         1 PHX      -0.090900
      7 CAO         -2.7140     0.0370    -0.0270 cc         1 PHX       0.553200
      8 NAD         -1.8530     1.0680     0.0540 nd         1 PHX      -0.545300
      9 OAS         -2.1010    -1.1890    -0.1160 os         1 PHX      -0.436700
     10 CAT         -0.7730    -1.0280    -0.0980 c          1 PHX       0.649300
     11 OAU          0.0760    -1.9060    -0.1600 o          1 PHX      -0.532000
     12 CAE         -0.6340     0.4170     0.0110 cd         1 PHX      -0.263600
     13 CAF          0.5720     1.0500     0.0630 c2         1 PHX       0.204000
     14 NAG          1.8220     0.4330     0.0230 nu         1 PHX      -0.754200
     15 CAH          3.1040     1.1450     0.0810 c3         1 PHX       0.196800
     16 CAI          4.2820     0.1520     0.0120 c3         1 PHX      -0.073400
     17 CAJ          5.6670     0.8460     0.0700 c3         1 PHX      -0.209400
     18 CAK          6.7910    -0.2020    -0.0040 c          1 PHX       0.720000
     19 OAL          7.1880    -0.6940     1.0410 o          1 PHX      -0.731500
     20 OAP          7.1970    -0.5340    -1.1070 o          1 PHX      -0.731500
     21 HAC         -4.4890    -2.0440    -0.1900 ha         1 PHX       0.132500
     22 HAB         -6.9600    -1.9050    -0.1910 ha         1 PHX       0.108500
     23 HAM         -8.0970     0.3060    -0.0300 ha         1 PHX       0.105000
     24 HAQ         -6.7410     2.3900     0.1330 ha         1 PHX       0.108500
     25 HAR         -4.2650     2.2740     0.1350 ha         1 PHX       0.132500
     26 HAF          0.5840     2.1420     0.1450 h4         1 PHX       0.201000
     27 HAG          1.8320    -0.5890    -0.0540 hn         1 PHX       0.525000
     28 HAH1         3.1750     1.8520    -0.7570 h1         1 PHX       0.045200
     29 HAH2         3.1680     1.7190     1.0150 h1         1 PHX       0.045200
     30 HAI1         4.2020    -0.5600     0.8430 hc         1 PHX       0.057200
     31 HAI2         4.2090    -0.4280    -0.9170 hc         1 PHX       0.057200
     32 HAJ1         5.7060     1.5120    -0.8020 hc         1 PHX       0.020200
     33 HAJ2         5.6980     1.3740     1.0310 hc         1 PHX       0.020200
@<TRIPOS>BOND
     1     1     2 ar  
     2     1     6 ar  
     3     1    21 1   
     4     2     3 ar  
     5     2    22 1   
     6     3     4 ar  
     7     3    23 1   
     8     4     5 ar  
     9     4    24 1   
    10     5     6 ar  
    11     5    25 1   
    12     6     7 1   
    13     7     8 2   
    14     7     9 1   
    15     8    12 1   
    16     9    10 1   
    17    10    11 2   
    18    10    12 1   
    19    12    13 2   
    20    13    14 1   
    21    13    26 1   
    22    14    15 1   
    23    14    27 1   
    24    15    16 1   
    25    15    28 1   
    26    15    29 1   
    27    16    17 1   
    28    16    30 1   
    29    16    31 1   
    30    17    18 1   
    31    17    32 1   
    32    17    33 1   
    33    18    19 1   
    34    18    20 1   
@<TRIPOS>SUBSTRUCTURE
     1 PHX         1 TEMP              0 ****  ****    0 ROOT
