@<TRIPOS>MOLECULE
PHX
   33    34     1     0     0
SMALL
abcg2


@<TRIPOS>ATOM
      1 CAC         -4.9890    -1.0500    -0.0030 ca         1 PHX      -0.079000
      2 CAB         -6.3670    -0.8880    -0.0150 ca         1 PHX      -0.123000
      3 CAM         -6.9250     0.3820    -0.0310 ca         1 PHX      -0.108000
      4 CAQ         -6.0960     1.4990    -0.0340 ca         1 PHX      -0.123000
      5 CAR         -4.7210     1.3460    -0.0220 ca         1 PHX      -0.079000
      6 CAN         -4.1540     0.0690    -0.0060 ca         1 PHX      -0.090900
      7 CAO         -2.7060    -0.0630     0.0070 cc         1 PHX       0.553200
      8 NAD         -1.8380     0.8740    -0.0140 nd         1 PHX      -0.545300
      9 OAS         -2.1770    -1.3200     0.0480 os         1 PHX      -0.436700
     10 CAT         -0.8100    -1.1760     0.0570 c          1 PHX       0.649300
     11 OAU         -0.0650    -2.1300     0.0930 o          1 PHX      -0.532000
     12 CAE         -0.6060     0.2390     0.0160 cd         1 PHX      -0.263600
     13 CAF          0.6020     0.9000     0.0060 c2         1 PHX       0.204000
     14 NAG          1.7900     0.3370     0.0360 nu         1 PHX      -0.754200
     15 CAH          3.0430     1.0810     0.0390 c3         1 PHX       0.196800
     16 CAI          4.2260     0.1300    -0.0100 c3         1 PHX      -0.073400
     17 CAJ          5.5450     0.8830    -0.0070 c3         1 PHX      -0.209400
     18 CAK          6.8060    -0.0010    -0.0400 c          1 PHX       0.720000
     19 OAL          6.6510    -1.2360     0.0240 o          1 PHX      -0.731500
     20 OAP          7.8930     0.6070    -0.1250 o          1 PHX      -0.731500
     21 HAC         -4.5740    -2.0490     0.0090 ha         1 PHX       0.132500
     22 HAB         -7.0060    -1.7610    -0.0130 ha         1 PHX       0.108500
     23 HAM         -8.0000     0.5030    -0.0390 ha         1 PHX       0.105000
     24 HAQ         -6.5240     2.4930    -0.0460 ha         1 PHX       0.108500
     25 HAR         -4.0780     2.2160    -0.0240 ha         1 PHX       0.132500
     26 HAF          0.5880     1.9850    -0.0290 h4         1 PHX       0.201000
     27 HAG          1.8470    -0.6720     0.0780 hn         1 PHX       0.525000
     28 HAH1         3.0620     1.7540    -0.8210 h1         1 PHX       0.045200
     29 HAH2         3.0950     1.7000     0.9400 h1         1 PHX       0.045200
     30 HAI1         4.1790    -0.5470     0.8460 hc         1 PHX       0.057200
     31 HAI2         4.1520    -0.4920    -0.9070 hc         1 PHX       0.057200
     32 HAJ1         5.5830     1.5710    -0.8590 hc         1 PHX       0.020200
     33 HAJ2         5.6030     1.5240     0.8810 hc         1 PHX       0.020200
@<TRIPOS>BOND
     1     1     2 ar  
     2     1     6 ar  
     3     1    21 1   
     4     2     3 ar  
     5     2    22 1   
     6     3     4 ar  
     7     3    23 1   
     8     4     5 ar  
     9     4    24 1   
    10     5     6 ar  
    11     5    25 1   
    12     6     7 1   
    13     7     8 2   
    14     7     9 1   
    15     8    12 1   
    16     9    10 1   
    17    10    11 2   
    18    10    12 1   
    19    12    13 2   
    20    13    14 1   
    21    13    26 1   
    22    14    15 1   
    23    14    27 1   
    24    15    16 1   
    25    15    28 1   
    26    15    29 1   
    27    16    17 1   
    28    16    30 1   
    29    16    31 1   
    30    17    18 1   
    31    17    32 1   
    32    17    33 1   
    33    18    19 1   
    34    18    20 1   
@<TRIPOS>SUBSTRUCTURE
     1 PHX         1 TEMP              0 ****  ****    0 ROOT
