@<TRIPOS>MOLECULE
PHZ
   16    16     1     0     0
SMALL
No Charge or Current Charge


@<TRIPOS>ATOM
      1 N1          -2.8830     0.4550    -0.1780 n8         1 PHZ      -0.712000
      2 N2          -1.7950    -0.5330    -0.1460 nu         1 PHZ      -0.802000
      3 CG          -0.4200    -0.2180    -0.0720 ca         1 PHZ       0.361000
      4 CD1          0.0350     1.1150    -0.0220 ca         1 PHZ      -0.187000
      5 CE1          1.4110     1.3970     0.0520 ca         1 PHZ      -0.068500
      6 CZ           2.3400     0.3440     0.0750 ca         1 PHZ      -0.168000
      7 CE2          1.8960    -0.9880     0.0250 ca         1 PHZ      -0.068500
      8 CD2          0.5190    -1.2640    -0.0480 ca         1 PHZ      -0.187000
      9 HN11        -3.4450     0.4790    -1.0490 hn         1 PHZ       0.400500
     10 HN12        -3.5280     0.4430     0.6330 hn         1 PHZ       0.400500
     11 HN2         -2.0020    -1.5480    -0.1780 hn         1 PHZ       0.478000
     12 HD1         -0.6740     1.9370    -0.0390 ha         1 PHZ       0.116000
     13 HE1          1.7550     2.4280     0.0910 ha         1 PHZ       0.105500
     14 HZ           3.4050     0.5600     0.1320 ha         1 PHZ       0.111000
     15 HE2          2.6160    -1.8040     0.0430 ha         1 PHZ       0.105500
     16 HD2          0.1840    -2.2970    -0.0860 ha         1 PHZ       0.116000
@<TRIPOS>BOND
     1     1     2 1   
     2     1     9 1   
     3     1    10 1   
     4     2     3 1   
     5     2    11 1   
     6     3     4 ar  
     7     3     8 ar  
     8     4     5 ar  
     9     4    12 1   
    10     5     6 ar  
    11     5    13 1   
    12     6     7 ar  
    13     6    14 1   
    14     7     8 ar  
    15     7    15 1   
    16     8    16 1   
@<TRIPOS>SUBSTRUCTURE
     1 PHZ         1 TEMP              0 ****  ****    0 ROOT
