@<TRIPOS>MOLECULE
PHZ
   16    16     1     0     0
SMALL
abcg2


@<TRIPOS>ATOM
      1 N1          -2.7470     0.4740    -0.1690 n8         1 PHZ      -0.712000
      2 N2          -1.7800    -0.5090    -0.1630 nu         1 PHZ      -0.802000
      3 CG          -0.4530    -0.2040    -0.0800 ca         1 PHZ       0.361000
      4 CD1          0.0150     1.1170    -0.0280 ca         1 PHZ      -0.187000
      5 CE1          1.3760     1.3740     0.0490 ca         1 PHZ      -0.068500
      6 CZ           2.3080     0.3440     0.0770 ca         1 PHZ      -0.168000
      7 CE2          1.8450    -0.9670     0.0270 ca         1 PHZ      -0.068500
      8 CD2          0.4920    -1.2440    -0.0500 ca         1 PHZ      -0.187000
      9 HN11        -3.3070     0.4050    -1.0100 hn         1 PHZ       0.400500
     10 HN12        -3.3640     0.3620     0.6250 hn         1 PHZ       0.400500
     11 HN2         -2.0580    -1.4770    -0.1810 hn         1 PHZ       0.478000
     12 HD1         -0.6920     1.9340    -0.0480 ha         1 PHZ       0.116000
     13 HE1          1.7090     2.4050     0.0880 ha         1 PHZ       0.105500
     14 HZ           3.3670     0.5550     0.1360 ha         1 PHZ       0.111000
     15 HE2          2.5490    -1.7900     0.0480 ha         1 PHZ       0.105500
     16 HD2          0.1550    -2.2740    -0.0870 ha         1 PHZ       0.116000
@<TRIPOS>BOND
     1     1     2 1   
     2     1     9 1   
     3     1    10 1   
     4     2     3 1   
     5     2    11 1   
     6     3     4 ar  
     7     3     8 ar  
     8     4     5 ar  
     9     4    12 1   
    10     5     6 ar  
    11     5    13 1   
    12     6     7 ar  
    13     6    14 1   
    14     7     8 ar  
    15     7    15 1   
    16     8    16 1   
@<TRIPOS>SUBSTRUCTURE
     1 PHZ         1 TEMP              0 ****  ****    0 ROOT
