@<TRIPOS>MOLECULE
PI0
   74    75     1     0     0
SMALL
No Charge or Current Charge


@<TRIPOS>ATOM
      1 C1          -3.1530    -1.3380    -0.8870 c3         1 PI0      -0.084700
      2 C2           1.8450    -4.3920    -0.5900 c          1 PI0       0.602100
      3 O3          -4.5420     1.7300    -1.2170 o          1 PI0      -0.528000
      4 C4          -2.4490    -2.0600    -2.0740 c3         1 PI0      -0.075400
      5 C6          -2.2810    -1.2040    -3.3490 c3         1 PI0      -0.096100
      6 C7          -7.8950     0.7290    -0.8270 ca         1 PI0      -0.085500
      7 C9          -5.8680     0.3840     0.6680 c3         1 PI0      -0.275100
      8 C10         -9.8800     1.8920    -0.0290 ca         1 PI0      -0.099000
      9 C15         -0.9430    -0.4430     0.1560 c          1 PI0       0.608100
     10 C16          6.9590     0.6770    -0.9600 ca         1 PI0      -0.108500
     11 C17          8.2050     0.4670    -0.3440 ca         1 PI0      -0.078000
     12 C18          1.5400    -0.4060    -0.4130 c3         1 PI0       0.025700
     13 C19          1.9920    -1.8050    -0.9180 c3         1 PI0      -0.074400
     14 C20          1.3600    -3.0020    -0.1600 c3         1 PI0      -0.161400
     15 C23          7.5930     2.0200     1.4210 ca         1 PI0      -0.078000
     16 C24          6.3480     2.2270     0.8030 ca         1 PI0      -0.108500
     17 C28          2.4010     0.7260    -1.0460 c          1 PI0       0.591100
     18 C32          4.6750     1.7840    -1.0570 c3         1 PI0       0.142300
     19 O1          -0.7460    -0.8950     1.2800 o          1 PI0      -0.617100
     20 N17          0.1060    -0.1670    -0.7020 ns         1 PI0      -0.491900
     21 N31          3.6990     0.8020    -0.5930 ns         1 PI0      -0.495900
     22 C22          8.5510     1.1490     0.8460 ca         1 PI0      -0.138900
     23 C25          6.0260     1.5630    -0.3940 ca         1 PI0      -0.101300
     24 N1          10.5990    -0.1170     1.2520 n2         1 PI0      -0.825100
     25 O2           2.6590    -4.5870    -1.4770 o          1 PI0      -0.604100
     26 N3           1.3090    -5.4310     0.0820 nt         1 PI0      -0.611000
     27 N4          -3.1530     0.7370     0.6280 n7         1 PI0      -0.929300
     28 C5          -2.3770    -0.0700    -0.3790 c3         1 PI0       0.173500
     29 C3          -3.4660    -2.3620     0.2390 c3         1 PI0      -0.091100
     30 S1          -4.5610     1.5530     0.2380 s6         1 PI0       1.213100
     31 O4          -4.6050     2.7200     1.1210 o          1 PI0      -0.528000
     32 C8          -7.2760     0.9150     0.4240 ca         1 PI0      -0.079300
     33 C12         -9.1940     1.2170    -1.0530 ca         1 PI0      -0.109000
     34 C11         -9.2670     2.0780     1.2210 ca         1 PI0      -0.109000
     35 C13         -7.9680     1.5900     1.4480 ca         1 PI0      -0.085500
     36 N2          10.3610     1.8330     2.3470 nv         1 PI0      -1.074200
     37 H1          -4.1130    -1.0010    -1.2900 hc         1 PI0       0.049700
     38 H4          -1.4670    -2.4350    -1.7630 hc         1 PI0       0.047200
     39 H4A         -3.0390    -2.9440    -2.3450 hc         1 PI0       0.047200
     40 H6          -3.2440    -0.7850    -3.6660 hc         1 PI0       0.040033
     41 H6A         -1.5760    -0.3800    -3.1930 hc         1 PI0       0.040033
     42 H6B         -1.8940    -1.8220    -4.1690 hc         1 PI0       0.040033
     43 H9          -5.7080    -0.5200     0.0750 h1         1 PI0       0.093700
     44 H9A         -5.7340     0.1440     1.7280 h1         1 PI0       0.093700
     45 H10        -10.8850     2.2700    -0.2040 ha         1 PI0       0.114000
     46 H16          6.7180     0.1460    -1.8780 ha         1 PI0       0.118500
     47 H17          8.9070    -0.2270    -0.8020 ha         1 PI0       0.130000
     48 H18          1.7030    -0.3490     0.6710 h1         1 PI0       0.084700
     49 H19          1.7680    -1.8920    -1.9890 hc         1 PI0       0.070200
     50 H19A         3.0830    -1.8830    -0.8240 hc         1 PI0       0.070200
     51 H20          0.2670    -3.0070    -0.2240 hc         1 PI0       0.062200
     52 H20A         1.5020    -2.9200     0.9240 hc         1 PI0       0.062200
     53 H23          7.8010     2.5330     2.3570 ha         1 PI0       0.130000
     54 H24          5.6280     2.9030     1.2620 ha         1 PI0       0.118500
     55 H32          4.7790     1.7000    -2.1480 h1         1 PI0       0.068200
     56 H32A         4.3070     2.7930    -0.8290 h1         1 PI0       0.068200
     57 HN17        -0.1260     0.2750    -1.5850 hn         1 PI0       0.342500
     58 HN31         3.9890     0.1310     0.1070 hn         1 PI0       0.320500
     59 HN1         11.3310    -0.1710     1.9670 hn         1 PI0       0.372400
     60 HN3          0.6360    -5.2660     0.8160 hn         1 PI0       0.314500
     61 HN3A         1.5890    -6.3700    -0.1570 hn         1 PI0       0.314500
     62 HN4         -3.4420     0.1370     1.3980 hn         1 PI0       0.518000
     63 H5          -2.1960     0.5740    -1.2490 h1         1 PI0       0.094700
     64 H3          -2.5500    -2.8350     0.6120 hc         1 PI0       0.039367
     65 H3A         -3.9780    -1.8940     1.0870 hc         1 PI0       0.039367
     66 H3B         -4.1200    -3.1570    -0.1390 hc         1 PI0       0.039367
     67 H12         -9.6680     1.0720    -2.0210 ha         1 PI0       0.116000
     68 H11         -9.7970     2.6000     2.0150 ha         1 PI0       0.116000
     69 H13         -7.5000     1.7390     2.4180 ha         1 PI0       0.118500
     70 HN2          9.9070     2.7370     2.2800 hn         1 PI0       0.461000
     71 HN2A        11.3690     1.8670     2.4440 hn         1 PI0       0.461000
     72 O30          1.9670     1.5070    -1.8850 o          1 PI0      -0.603100
     73 H7          -7.3700     0.2080    -1.6250 ha         1 PI0       0.118500
     74 C26          9.8720     0.8920     1.5110 ce         1 PI0       0.657800
@<TRIPOS>BOND
     1     1     4 1   
     2     1    28 1   
     3     1    29 1   
     4     1    37 1   
     5     2    14 1   
     6     2    25 2   
     7     2    26 1   
     8     3    30 2   
     9     4     5 1   
    10     4    38 1   
    11     4    39 1   
    12     5    40 1   
    13     5    41 1   
    14     5    42 1   
    15     6    32 ar  
    16     6    33 ar  
    17     6    73 1   
    18     7    30 1   
    19     7    32 1   
    20     7    43 1   
    21     7    44 1   
    22     8    33 ar  
    23     8    34 ar  
    24     8    45 1   
    25     9    19 2   
    26     9    20 1   
    27     9    28 1   
    28    10    11 ar  
    29    10    23 ar  
    30    10    46 1   
    31    11    22 ar  
    32    11    47 1   
    33    12    13 1   
    34    12    17 1   
    35    12    20 1   
    36    12    48 1   
    37    13    14 1   
    38    13    49 1   
    39    13    50 1   
    40    14    51 1   
    41    14    52 1   
    42    15    16 ar  
    43    15    22 ar  
    44    15    53 1   
    45    16    23 ar  
    46    16    54 1   
    47    17    21 1   
    48    17    72 2   
    49    18    21 1   
    50    18    23 1   
    51    18    55 1   
    52    18    56 1   
    53    20    57 1   
    54    21    58 1   
    55    22    74 1   
    56    24    59 1   
    57    24    74 2   
    58    26    60 1   
    59    26    61 1   
    60    27    28 1   
    61    27    30 1   
    62    27    62 1   
    63    28    63 1   
    64    29    64 1   
    65    29    65 1   
    66    29    66 1   
    67    30    31 2   
    68    32    35 ar  
    69    33    67 1   
    70    34    35 ar  
    71    34    68 1   
    72    35    69 1   
    73    36    70 1   
    74    36    71 1   
    75    36    74 1   
@<TRIPOS>SUBSTRUCTURE
     1 PI0         1 TEMP              0 ****  ****    0 ROOT
