@<TRIPOS>MOLECULE
PI0
   74    75     1     0     0
SMALL
bcc


@<TRIPOS>ATOM
      1 C1          -2.8920    -1.3150    -1.0570 c3         1 PI0      -0.084700
      2 C2           1.8200    -4.2290    -0.2960 c          1 PI0       0.669100
      3 O3          -4.5540     1.7770    -1.1240 o          1 PI0      -0.598800
      4 C4          -2.0950    -1.8330    -2.2590 c3         1 PI0      -0.075400
      5 C6          -2.0350    -0.8800    -3.4470 c3         1 PI0      -0.096100
      6 C7          -7.7530     0.8280    -1.0900 ca         1 PI0      -0.103500
      7 C9          -5.8830     0.0490     0.3830 c3         1 PI0      -0.164300
      8 C10         -9.7240     1.8600    -0.1730 ca         1 PI0      -0.117000
      9 C15         -0.9780    -0.2510     0.2520 c          1 PI0       0.675100
     10 C16          6.1160     0.4650    -0.2900 ca         1 PI0      -0.126500
     11 C17          7.4070     0.0670     0.0080 ca         1 PI0      -0.096000
     12 C18          1.4560    -0.3570    -0.1020 c3         1 PI0       0.025700
     13 C19          2.0150    -1.7160    -0.5390 c3         1 PI0      -0.074400
     14 C20          1.2930    -2.8730     0.1310 c3         1 PI0      -0.161400
     15 C23          7.8470     2.2130     0.9770 ca         1 PI0      -0.096000
     16 C24          6.5470     2.6060     0.6880 ca         1 PI0      -0.126500
     17 C28          2.3150     0.7480    -0.7090 c          1 PI0       0.658100
     18 C32          4.2720     2.1870    -0.2960 c3         1 PI0       0.142300
     19 O1          -0.9210    -0.5280     1.4390 o          1 PI0      -0.617100
     20 N17          0.0950    -0.1580    -0.5450 ns         1 PI0      -0.558900
     21 N31          3.2850     1.2050     0.0920 ns         1 PI0      -0.562900
     22 C22          8.2930     0.9390     0.6400 ca         1 PI0      -0.138900
     23 C25          5.6690     1.7420     0.0460 ca         1 PI0      -0.101300
     24 N1           9.8780    -0.7690     1.1250 n2         1 PI0      -0.825100
     25 O2           2.4410    -4.3950    -1.3360 o          1 PI0      -0.604100
     26 N3           1.5290    -5.2300     0.5480 nt         1 PI0      -0.678000
     27 N4          -3.1740     0.5850     0.5660 n7         1 PI0      -0.874100
     28 C5          -2.3190    -0.0160    -0.4450 c3         1 PI0       0.173500
     29 C3          -3.0880    -2.4170    -0.0230 c3         1 PI0      -0.091100
     30 S1          -4.6010     1.3100     0.2540 s6         1 PI0       1.243900
     31 O4          -4.8450     2.2610     1.3270 o          1 PI0      -0.598800
     32 C8          -7.2290     0.6710     0.1900 ca         1 PI0      -0.079300
     33 C12         -8.9970     1.4170    -1.2710 ca         1 PI0      -0.127000
     34 C11         -9.2040     1.7080     1.1060 ca         1 PI0      -0.127000
     35 C13         -7.9600     1.1220     1.2860 ca         1 PI0      -0.103500
     36 N2          10.6010     1.4740     1.0870 nv         1 PI0      -0.963800
     37 H1          -3.8760    -1.0360    -1.4530 hc         1 PI0       0.049700
     38 H4          -1.0830    -2.1130    -1.9520 hc         1 PI0       0.047200
     39 H4A         -2.5680    -2.7640    -2.5810 hc         1 PI0       0.047200
     40 H6          -3.0370    -0.5960    -3.7730 hc         1 PI0       0.040033
     41 H6A         -1.4970     0.0440    -3.2280 hc         1 PI0       0.040033
     42 H6B         -1.5300    -1.3480    -4.2910 hc         1 PI0       0.040033
     43 H9          -5.6720    -0.7080    -0.3730 h1         1 PI0       0.093700
     44 H9A         -5.7740    -0.4050     1.3700 h1         1 PI0       0.093700
     45 H10        -10.6940     2.3190    -0.3150 ha         1 PI0       0.132000
     46 H16          5.4510    -0.2280    -0.7920 ha         1 PI0       0.136500
     47 H17          7.7400    -0.9270    -0.2590 ha         1 PI0       0.148000
     48 H18          1.4700    -0.2920     0.9870 h1         1 PI0       0.084700
     49 H19          1.9480    -1.7990    -1.6250 hc         1 PI0       0.070200
     50 H19A         3.0770    -1.7520    -0.2830 hc         1 PI0       0.070200
     51 H20          0.2270    -2.8500    -0.1150 hc         1 PI0       0.062200
     52 H20A         1.3490    -2.7790     1.2180 hc         1 PI0       0.062200
     53 H23          8.4980     2.9060     1.4950 ha         1 PI0       0.148000
     54 H24          6.2160     3.5960     0.9750 ha         1 PI0       0.136500
     55 H32          4.1820     2.3470    -1.3710 h1         1 PI0       0.068200
     56 H32A         4.0570     3.1450     0.1840 h1         1 PI0       0.068200
     57 HN17        -0.0230     0.1470    -1.5000 hn         1 PI0       0.342500
     58 HN31         3.3110     0.8820     1.0470 hn         1 PI0       0.320500
     59 HN1         10.8600    -0.9600     1.3060 hn         1 PI0       0.372400
     60 HN3          1.0110    -5.0750     1.3950 hn         1 PI0       0.314500
     61 HN3A         1.7830    -6.1780     0.3260 hn         1 PI0       0.314500
     62 HN4         -3.0340     0.2820     1.5230 hn         1 PI0       0.462800
     63 H5          -2.1800     0.7210    -1.2380 h1         1 PI0       0.094700
     64 H3          -2.1380    -2.8300     0.3190 hc         1 PI0       0.039367
     65 H3A         -3.6320    -2.0740     0.8580 hc         1 PI0       0.039367
     66 H3B         -3.6630    -3.2360    -0.4560 hc         1 PI0       0.039367
     67 H12         -9.3980     1.5310    -2.2690 ha         1 PI0       0.134000
     68 H11         -9.7690     2.0460     1.9650 ha         1 PI0       0.134000
     69 H13         -7.5610     1.0000     2.2850 ha         1 PI0       0.136500
     70 HN2         10.4660     2.3250     0.5650 hn         1 PI0       0.405800
     71 HN2A        11.5680     1.1960     1.1550 hn         1 PI0       0.405800
     72 O30          2.1280     1.1250    -1.8560 o          1 PI0      -0.603100
     73 H7          -7.1950     0.4780    -1.9490 ha         1 PI0       0.136500
     74 C26          9.6740     0.4810     0.9550 ce         1 PI0       0.657800
@<TRIPOS>BOND
     1     1     4 1   
     2     1    28 1   
     3     1    29 1   
     4     1    37 1   
     5     2    14 1   
     6     2    25 2   
     7     2    26 1   
     8     3    30 2   
     9     4     5 1   
    10     4    38 1   
    11     4    39 1   
    12     5    40 1   
    13     5    41 1   
    14     5    42 1   
    15     6    32 ar  
    16     6    33 ar  
    17     6    73 1   
    18     7    30 1   
    19     7    32 1   
    20     7    43 1   
    21     7    44 1   
    22     8    33 ar  
    23     8    34 ar  
    24     8    45 1   
    25     9    19 2   
    26     9    20 1   
    27     9    28 1   
    28    10    11 ar  
    29    10    23 ar  
    30    10    46 1   
    31    11    22 ar  
    32    11    47 1   
    33    12    13 1   
    34    12    17 1   
    35    12    20 1   
    36    12    48 1   
    37    13    14 1   
    38    13    49 1   
    39    13    50 1   
    40    14    51 1   
    41    14    52 1   
    42    15    16 ar  
    43    15    22 ar  
    44    15    53 1   
    45    16    23 ar  
    46    16    54 1   
    47    17    21 1   
    48    17    72 2   
    49    18    21 1   
    50    18    23 1   
    51    18    55 1   
    52    18    56 1   
    53    20    57 1   
    54    21    58 1   
    55    22    74 1   
    56    24    59 1   
    57    24    74 2   
    58    26    60 1   
    59    26    61 1   
    60    27    28 1   
    61    27    30 1   
    62    27    62 1   
    63    28    63 1   
    64    29    64 1   
    65    29    65 1   
    66    29    66 1   
    67    30    31 2   
    68    32    35 ar  
    69    33    67 1   
    70    34    35 ar  
    71    34    68 1   
    72    35    69 1   
    73    36    70 1   
    74    36    71 1   
    75    36    74 1   
@<TRIPOS>SUBSTRUCTURE
     1 PI0         1 TEMP              0 ****  ****    0 ROOT
