@<TRIPOS>MOLECULE
PI2
   68    69     1     0     0
SMALL
No Charge or Current Charge


@<TRIPOS>ATOM
      1 C1           1.3190     1.2460    -6.0790 c3         1 PI2      -0.094400
      2 C2           2.0310     0.0450    -3.8800 c          1 PI2       0.604100
      3 O3           2.1260    -1.1400    -4.1590 o          1 PI2      -0.569100
      4 C4           2.3280     1.1600    -4.8960 c3         1 PI2      -0.156400
      5 N5           1.7140     0.4820    -2.6090 ns         1 PI2      -0.511900
      6 C6           1.4050    -0.3890    -1.4470 c3         1 PI2       0.045700
      7 C7           0.3020     0.2710    -0.5670 c          1 PI2       0.581100
      8 O8           0.1030     1.4800    -0.5500 o          1 PI2      -0.619100
      9 C9           2.6760    -0.6870    -0.6100 c3         1 PI2      -0.174400
     10 C10          3.6930    -1.5400    -1.3670 c          1 PI2       0.608100
     11 O11          3.5920    -2.7490    -1.4810 o          1 PI2      -0.591100
     12 N12          4.7570    -0.8870    -1.8810 nt         1 PI2      -0.607000
     13 N13         -0.4620    -0.6120     0.1780 ns         1 PI2      -0.479900
     14 C14         -1.7840    -0.2840     0.7530 c3         1 PI2       0.065700
     15 C15         -2.9170    -0.7900    -0.1920 c3         1 PI2      -0.035100
     16 C16         -2.5610    -0.5570    -1.6570 ca         1 PI2      -0.130300
     17 C17         -2.6140     0.7430    -2.1950 ca         1 PI2      -0.075500
     18 C18         -2.0500     1.0110    -3.4530 ca         1 PI2      -0.162500
     19 C19         -2.0150    -1.6050    -2.4230 ca         1 PI2      -0.075500
     20 C20         -1.4510    -1.3360    -3.6790 ca         1 PI2      -0.162500
     21 C21         -1.4230    -0.0250    -4.1760 ca         1 PI2       0.152100
     22 O22         -0.7210     0.1990    -5.3390 os         1 PI2      -0.346100
     23 C23         -0.1510     1.4810    -5.6630 c3         1 PI2       0.171600
     24 C24         -1.9240    -0.7900     2.2160 c3         1 PI2       0.166300
     25 O25         -3.1670    -0.3720     2.7910 oh         1 PI2      -0.639000
     26 C26         -0.8080    -0.2650     3.1610 c3         1 PI2       0.124800
     27 N27         -1.2220    -0.4080     4.5830 n7         1 PI2      -0.854400
     28 C28         -0.3330     0.2480     5.5570 c3         1 PI2       0.158800
     29 C29         -0.8770     0.0470     6.9870 c3         1 PI2      -0.077400
     30 C30         -0.0750     0.7890     8.0920 c3         1 PI2      -0.059700
     31 C31         -0.7810     0.6720     9.4620 c3         1 PI2      -0.087600
     32 C32          1.3940     0.3130     8.1900 c3         1 PI2      -0.087600
     33 H11          1.3850     0.3380    -6.6920 hc         1 PI2       0.062700
     34 H12          1.6260     2.0750    -6.7280 hc         1 PI2       0.062700
     35 H41          3.3220     0.9710    -5.3190 hc         1 PI2       0.056200
     36 H42          2.3480     2.1300    -4.3850 hc         1 PI2       0.056200
     37 HN5          1.6360     1.4850    -2.4790 hn         1 PI2       0.321500
     38 H6           0.9860    -1.3350    -1.8170 h1         1 PI2       0.108700
     39 H91          3.1270     0.2730    -0.3300 hc         1 PI2       0.069700
     40 H92          2.3790    -1.2350     0.2920 hc         1 PI2       0.069700
     41 H121         5.4610    -1.4090    -2.3820 hn         1 PI2       0.313000
     42 H122         4.8390     0.1130    -1.7730 hn         1 PI2       0.313000
     43 H13         -0.2090    -1.5910     0.1100 hn         1 PI2       0.320500
     44 H14         -1.8680     0.8110     0.7890 h1         1 PI2       0.078700
     45 H151        -3.0830    -1.8600    -0.0130 hc         1 PI2       0.061200
     46 H152        -3.8580    -0.2860     0.0610 hc         1 PI2       0.061200
     47 H17         -3.0310     1.5600    -1.6090 ha         1 PI2       0.113000
     48 H18         -2.0750     2.0280    -3.8330 ha         1 PI2       0.124000
     49 H19         -1.9630    -2.6130    -2.0170 ha         1 PI2       0.113000
     50 H20         -0.9750    -2.1350    -4.2410 ha         1 PI2       0.124000
     51 H231        -0.7040     1.9350    -6.4960 h1         1 PI2       0.049200
     52 H232        -0.1650     2.1790    -4.8180 h1         1 PI2       0.049200
     53 H24         -1.8710    -1.8880     2.2130 h1         1 PI2       0.069700
     54 H25         -2.8970    -0.1860     3.7260 ho         1 PI2       0.446000
     55 H261        -0.6280     0.7940     2.9290 h1         1 PI2       0.039700
     56 H262         0.1270    -0.8090     2.9660 h1         1 PI2       0.039700
     57 H27         -1.2500    -1.4110     4.8130 hn         1 PI2       0.408000
     58 H281        -0.2680     1.3240     5.3460 h1         1 PI2       0.028200
     59 H282         0.6790    -0.1730     5.4840 h1         1 PI2       0.028200
     60 H291        -0.9020    -1.0260     7.2170 hc         1 PI2       0.046700
     61 H292        -1.9160     0.3980     7.0130 hc         1 PI2       0.046700
     62 H30         -0.0580     1.8550     7.8290 hc         1 PI2       0.045700
     63 H311        -0.2420     1.2440    10.2270 hc         1 PI2       0.032367
     64 H312        -1.8040     1.0650     9.4070 hc         1 PI2       0.032367
     65 H313        -0.8320    -0.3740     9.7870 hc         1 PI2       0.032367
     66 H321         1.4440    -0.7640     8.3900 hc         1 PI2       0.032367
     67 H322         1.9410     0.5180     7.2620 hc         1 PI2       0.032367
     68 H323         1.9160     0.8350     9.0010 hc         1 PI2       0.032367
@<TRIPOS>BOND
     1     1     4 1   
     2     1    23 1   
     3     1    33 1   
     4     1    34 1   
     5     2     3 2   
     6     2     4 1   
     7     2     5 1   
     8     4    35 1   
     9     4    36 1   
    10     5     6 1   
    11     5    37 1   
    12     6     7 1   
    13     6     9 1   
    14     6    38 1   
    15     7     8 2   
    16     7    13 1   
    17     9    10 1   
    18     9    39 1   
    19     9    40 1   
    20    10    11 2   
    21    10    12 1   
    22    12    41 1   
    23    12    42 1   
    24    13    14 1   
    25    13    43 1   
    26    14    15 1   
    27    14    24 1   
    28    14    44 1   
    29    15    16 1   
    30    15    45 1   
    31    15    46 1   
    32    16    17 ar  
    33    16    19 ar  
    34    17    18 ar  
    35    17    47 1   
    36    18    21 ar  
    37    18    48 1   
    38    19    20 ar  
    39    19    49 1   
    40    20    21 ar  
    41    20    50 1   
    42    21    22 1   
    43    22    23 1   
    44    23    51 1   
    45    23    52 1   
    46    24    25 1   
    47    24    26 1   
    48    24    53 1   
    49    25    54 1   
    50    26    27 1   
    51    26    55 1   
    52    26    56 1   
    53    27    28 1   
    54    27    57 1   
    55    28    29 1   
    56    28    58 1   
    57    28    59 1   
    58    29    30 1   
    59    29    60 1   
    60    29    61 1   
    61    30    31 1   
    62    30    32 1   
    63    30    62 1   
    64    31    63 1   
    65    31    64 1   
    66    31    65 1   
    67    32    66 1   
    68    32    67 1   
    69    32    68 1   
@<TRIPOS>SUBSTRUCTURE
     1 PI2         1 TEMP              0 ****  ****    0 ROOT
