@<TRIPOS>MOLECULE
PI2
   68    69     1     0     0
SMALL
bcc


@<TRIPOS>ATOM
      1 C1           1.3160     0.7620    -5.8750 c3         1 PI2      -0.094400
      2 C2           1.6510    -0.0430    -3.4510 c          1 PI2       0.671100
      3 O3           1.4970    -1.2140    -3.7510 o          1 PI2      -0.569100
      4 C4           1.8510     1.0540    -4.4790 c3         1 PI2      -0.156400
      5 N5           1.7350     0.3990    -2.1770 ns         1 PI2      -0.578900
      6 C6           1.5060    -0.4050    -1.0020 c3         1 PI2       0.045700
      7 C7           0.3750     0.2540    -0.2150 c          1 PI2       0.648100
      8 O8           0.4070     1.4560     0.0070 o          1 PI2      -0.619100
      9 C9           2.7540    -0.4860    -0.1200 c3         1 PI2      -0.174400
     10 C10          3.9010    -1.1260    -0.8760 c          1 PI2       0.675100
     11 O11          3.8130    -2.2600    -1.3240 o          1 PI2      -0.591100
     12 N12          4.9940    -0.3640    -1.0060 nt         1 PI2      -0.674000
     13 N13         -0.6050    -0.5610     0.1990 ns         1 PI2      -0.546900
     14 C14         -1.8840    -0.0690     0.6720 c3         1 PI2       0.065700
     15 C15         -2.9960    -0.4910    -0.3080 c3         1 PI2      -0.035100
     16 C16         -2.5510    -0.3380    -1.7380 ca         1 PI2      -0.130300
     17 C17         -2.1800     0.8940    -2.2630 ca         1 PI2      -0.093500
     18 C18         -1.6360     1.0160    -3.5360 ca         1 PI2      -0.180500
     19 C19         -2.3910    -1.4550    -2.5550 ca         1 PI2      -0.093500
     20 C20         -1.8640    -1.3530    -3.8290 ca         1 PI2      -0.180500
     21 C21         -1.4640    -0.1160    -4.3290 ca         1 PI2       0.152100
     22 O22         -0.9680    -0.1230    -5.5850 os         1 PI2      -0.322900
     23 C23         -0.1790     0.9420    -6.0910 c3         1 PI2       0.148400
     24 C24         -2.1570    -0.5230     2.1140 c3         1 PI2       0.143100
     25 O25         -3.4760    -0.2140     2.4960 oh         1 PI2      -0.576800
     26 C26         -1.1270     0.0680     3.0710 c3         1 PI2       0.124800
     27 N27         -1.3630    -0.3380     4.4410 n7         1 PI2      -0.799200
     28 C28         -0.4100     0.2490     5.3660 c3         1 PI2       0.158800
     29 C29         -0.6870    -0.1990     6.7930 c3         1 PI2      -0.077400
     30 C30          0.1690     0.4930     7.8560 c3         1 PI2      -0.059700
     31 C31         -0.2880     0.0740     9.2500 c3         1 PI2      -0.087600
     32 C32          1.6580     0.2060     7.6800 c3         1 PI2      -0.087600
     33 H11          1.6200    -0.2340    -6.2020 hc         1 PI2       0.062700
     34 H12          1.7970     1.4630    -6.5610 hc         1 PI2       0.062700
     35 H41          2.9330     1.2090    -4.5500 hc         1 PI2       0.056200
     36 H42          1.4460     1.9990    -4.1080 hc         1 PI2       0.056200
     37 HN5          1.8250     1.3920    -2.0240 hn         1 PI2       0.321500
     38 H6           1.2240    -1.4050    -1.3300 h1         1 PI2       0.108700
     39 H91          3.0150     0.5090     0.2420 hc         1 PI2       0.069700
     40 H92          2.5340    -1.1030     0.7550 hc         1 PI2       0.069700
     41 H121         5.7940    -0.6990    -1.5180 hn         1 PI2       0.313000
     42 H122         5.0250     0.5820    -0.6670 hn         1 PI2       0.313000
     43 H13         -0.5630    -1.5260    -0.0920 hn         1 PI2       0.320500
     44 H14         -1.8130     1.0210     0.6640 h1         1 PI2       0.078700
     45 H151        -3.2690    -1.5350    -0.1270 hc         1 PI2       0.061200
     46 H152        -3.8860     0.1050    -0.1000 hc         1 PI2       0.061200
     47 H17         -2.2840     1.7910    -1.6630 ha         1 PI2       0.131000
     48 H18         -1.3490     2.0000    -3.8810 ha         1 PI2       0.142000
     49 H19         -2.6660    -2.4350    -2.1800 ha         1 PI2       0.131000
     50 H20         -1.7350    -2.2390    -4.4380 ha         1 PI2       0.142000
     51 H231        -0.3730     0.9510    -7.1650 h1         1 PI2       0.049200
     52 H232        -0.5070     1.9120    -5.7080 h1         1 PI2       0.049200
     53 H24         -2.0880    -1.6180     2.1480 h1         1 PI2       0.069700
     54 H25         -3.5360     0.7360     2.6440 ho         1 PI2       0.407000
     55 H261        -1.1870     1.1630     3.0190 h1         1 PI2       0.039700
     56 H262        -0.1190    -0.1980     2.7190 h1         1 PI2       0.039700
     57 H27         -1.2900    -1.3480     4.5000 hn         1 PI2       0.352800
     58 H281        -0.5070     1.3390     5.3050 h1         1 PI2       0.028200
     59 H282         0.6310     0.0190     5.0900 h1         1 PI2       0.028200
     60 H291        -0.5420    -1.2840     6.8710 hc         1 PI2       0.046700
     61 H292        -1.7440    -0.0120     7.0080 hc         1 PI2       0.046700
     62 H30          0.0150     1.5740     7.7590 hc         1 PI2       0.045700
     63 H311         0.2730     0.5960    10.0270 hc         1 PI2       0.032367
     64 H312        -1.3470     0.2870     9.4040 hc         1 PI2       0.032367
     65 H313        -0.1410    -0.9980     9.4000 hc         1 PI2       0.032367
     66 H321         1.8520    -0.8690     7.7350 hc         1 PI2       0.032367
     67 H322         2.0390     0.5610     6.7220 hc         1 PI2       0.032367
     68 H323         2.2450     0.6880     8.4640 hc         1 PI2       0.032367
@<TRIPOS>BOND
     1     1     4 1   
     2     1    23 1   
     3     1    33 1   
     4     1    34 1   
     5     2     3 2   
     6     2     4 1   
     7     2     5 1   
     8     4    35 1   
     9     4    36 1   
    10     5     6 1   
    11     5    37 1   
    12     6     7 1   
    13     6     9 1   
    14     6    38 1   
    15     7     8 2   
    16     7    13 1   
    17     9    10 1   
    18     9    39 1   
    19     9    40 1   
    20    10    11 2   
    21    10    12 1   
    22    12    41 1   
    23    12    42 1   
    24    13    14 1   
    25    13    43 1   
    26    14    15 1   
    27    14    24 1   
    28    14    44 1   
    29    15    16 1   
    30    15    45 1   
    31    15    46 1   
    32    16    17 ar  
    33    16    19 ar  
    34    17    18 ar  
    35    17    47 1   
    36    18    21 ar  
    37    18    48 1   
    38    19    20 ar  
    39    19    49 1   
    40    20    21 ar  
    41    20    50 1   
    42    21    22 1   
    43    22    23 1   
    44    23    51 1   
    45    23    52 1   
    46    24    25 1   
    47    24    26 1   
    48    24    53 1   
    49    25    54 1   
    50    26    27 1   
    51    26    55 1   
    52    26    56 1   
    53    27    28 1   
    54    27    57 1   
    55    28    29 1   
    56    28    58 1   
    57    28    59 1   
    58    29    30 1   
    59    29    60 1   
    60    29    61 1   
    61    30    31 1   
    62    30    32 1   
    63    30    62 1   
    64    31    63 1   
    65    31    64 1   
    66    31    65 1   
    67    32    66 1   
    68    32    67 1   
    69    32    68 1   
@<TRIPOS>SUBSTRUCTURE
     1 PI2         1 TEMP              0 ****  ****    0 ROOT
