@<TRIPOS>MOLECULE
PI3
   70    71     1     0     0
SMALL
abcg2


@<TRIPOS>ATOM
      1 C1           1.6270     0.7650    -5.9390 c3         1 PI3      -0.094400
      2 C2           1.9480     0.0690    -3.4790 c          1 PI3       0.606100
      3 O3           1.9780    -1.1200    -3.7500 o          1 PI3      -0.593100
      4 C4           2.0560     1.1590    -4.5310 c3         1 PI3      -0.157400
      5 N5           1.8850     0.5470    -2.2210 ns         1 PI3      -0.504900
      6 C6           1.7280    -0.2520    -1.0280 c3         1 PI3       0.040700
      7 C7           0.5810     0.3860    -0.2470 c          1 PI3       0.587100
      8 O8           0.5960     1.5860    -0.0130 o          1 PI3      -0.616100
      9 C9           3.0090    -0.3070    -0.1780 c3         1 PI3      -0.068700
     10 C10          2.7750    -1.0810     1.1170 c3         1 PI3      -0.088600
     11 C11          4.1550    -0.9260    -0.9670 c3         1 PI3      -0.088600
     12 N12         -0.4060    -0.4370     0.1380 ns         1 PI3      -0.483900
     13 C13         -1.7050     0.0400     0.5710 c3         1 PI3       0.067700
     14 C14         -2.7890    -0.4160    -0.4290 c3         1 PI3      -0.036100
     15 C15         -2.2930    -0.3450    -1.8470 ca         1 PI3      -0.128300
     16 C16         -1.9840     0.8650    -2.4560 ca         1 PI3      -0.076000
     17 C17         -1.3940     0.9230    -3.7140 ca         1 PI3      -0.164500
     18 C18         -2.0150    -1.5100    -2.5590 ca         1 PI3      -0.076000
     19 C19         -1.4380    -1.4720    -3.8150 ca         1 PI3      -0.164500
     20 C20         -1.1060    -0.2530    -4.4020 ca         1 PI3       0.152100
     21 O21         -0.5570    -0.3270    -5.6330 os         1 PI3      -0.345100
     22 C22          0.1330     0.7650    -6.2190 c3         1 PI3       0.170600
     23 C23         -2.0140    -0.4040     2.0090 c3         1 PI3       0.165300
     24 O24         -3.3430    -0.0880     2.3530 oh         1 PI3      -0.641000
     25 C25         -1.0100     0.1880     2.9930 c3         1 PI3       0.123800
     26 N26         -1.2690    -0.2320     4.3530 n7         1 PI3      -0.853400
     27 C27         -0.3040     0.3140     5.2910 c3         1 PI3       0.157800
     28 C28         -0.5900    -0.1560     6.7090 c3         1 PI3      -0.077400
     29 C29          0.2820     0.4960     7.7830 c3         1 PI3      -0.059700
     30 C30         -0.1770     0.0580     9.1700 c3         1 PI3      -0.087600
     31 C31          1.7650     0.1840     7.5940 c3         1 PI3      -0.087600
     32 H11          2.0540    -0.2020    -6.2090 hc         1 PI3       0.063200
     33 H12A         2.0580     1.4920    -6.6320 hc         1 PI3       0.063200
     34 H41          3.1130     1.4460    -4.5600 hc         1 PI3       0.057700
     35 H42          1.5200     2.0550    -4.2070 hc         1 PI3       0.057700
     36 HN5          1.8520     1.5460    -2.0940 hn         1 PI3       0.326500
     37 H6           1.4660    -1.2660    -1.3400 h1         1 PI3       0.085700
     38 H9           3.2780     0.7230     0.0800 hc         1 PI3       0.061700
     39 H101         3.7020    -1.1530     1.6860 hc         1 PI3       0.037700
     40 H102         2.0370    -0.6040     1.7640 hc         1 PI3       0.037700
     41 H103         2.4320    -2.0980     0.9150 hc         1 PI3       0.037700
     42 H111         3.9210    -1.9520    -1.2590 hc         1 PI3       0.037700
     43 H112         4.3850    -0.3630    -1.8710 hc         1 PI3       0.037700
     44 H113         5.0610    -0.9540    -0.3600 hc         1 PI3       0.037700
     45 H12         -0.3480    -1.4000    -0.1570 hn         1 PI3       0.315500
     46 H13         -1.6530     1.1310     0.5500 h1         1 PI3       0.078700
     47 H141        -3.0880    -1.4440    -0.2030 hc         1 PI3       0.060700
     48 H142        -3.6740     0.2060    -0.2890 hc         1 PI3       0.060700
     49 H16         -2.1850     1.7970    -1.9410 ha         1 PI3       0.112000
     50 H17         -1.1600     1.8950    -4.1270 ha         1 PI3       0.123500
     51 H18         -2.2390    -2.4730    -2.1150 ha         1 PI3       0.112000
     52 H19         -1.2210    -2.3930    -4.3420 ha         1 PI3       0.123500
     53 H221        -0.0190     0.6540    -7.2940 h1         1 PI3       0.049700
     54 H222        -0.3090     1.7250    -5.9390 h1         1 PI3       0.049700
     55 H23         -1.9500    -1.4980     2.0500 h1         1 PI3       0.067700
     56 H24         -3.4070     0.8650     2.4780 ho         1 PI3       0.446000
     57 H251        -1.0740     1.2820     2.9470 h1         1 PI3       0.041700
     58 H252         0.0050    -0.0710     2.6590 h1         1 PI3       0.041700
     59 H26         -1.2230    -1.2450     4.3970 hn         1 PI3       0.406000
     60 H271        -0.3750     1.4070     5.2510 h1         1 PI3       0.029200
     61 H272         0.7310     0.0650     5.0100 h1         1 PI3       0.029200
     62 H281        -0.4680    -1.2450     6.7650 hc         1 PI3       0.045700
     63 H282        -1.6430     0.0490     6.9300 hc         1 PI3       0.045700
     64 H29          0.1490     1.5830     7.7090 hc         1 PI3       0.045700
     65 H301         0.3940     0.5560     9.9550 hc         1 PI3       0.032367
     66 H302        -1.2330     0.2840     9.3310 hc         1 PI3       0.032367
     67 H303        -0.0470    -1.0200     9.2990 hc         1 PI3       0.032367
     68 H311         1.9360    -0.8960     7.6150 hc         1 PI3       0.032367
     69 H312         2.1520     0.5620     6.6470 hc         1 PI3       0.032367
     70 H313         2.3630     0.6280     8.3920 hc         1 PI3       0.032367
@<TRIPOS>BOND
     1     1     4 1   
     2     1    22 1   
     3     1    32 1   
     4     1    33 1   
     5     2     3 2   
     6     2     4 1   
     7     2     5 1   
     8     4    34 1   
     9     4    35 1   
    10     5     6 1   
    11     5    36 1   
    12     6     7 1   
    13     6     9 1   
    14     6    37 1   
    15     7     8 2   
    16     7    12 1   
    17     9    10 1   
    18     9    11 1   
    19     9    38 1   
    20    10    39 1   
    21    10    40 1   
    22    10    41 1   
    23    11    42 1   
    24    11    43 1   
    25    11    44 1   
    26    12    13 1   
    27    12    45 1   
    28    13    14 1   
    29    13    23 1   
    30    13    46 1   
    31    14    15 1   
    32    14    47 1   
    33    14    48 1   
    34    15    16 ar  
    35    15    18 ar  
    36    16    17 ar  
    37    16    49 1   
    38    17    20 ar  
    39    17    50 1   
    40    18    19 ar  
    41    18    51 1   
    42    19    20 ar  
    43    19    52 1   
    44    20    21 1   
    45    21    22 1   
    46    22    53 1   
    47    22    54 1   
    48    23    24 1   
    49    23    25 1   
    50    23    55 1   
    51    24    56 1   
    52    25    26 1   
    53    25    57 1   
    54    25    58 1   
    55    26    27 1   
    56    26    59 1   
    57    27    28 1   
    58    27    60 1   
    59    27    61 1   
    60    28    29 1   
    61    28    62 1   
    62    28    63 1   
    63    29    30 1   
    64    29    31 1   
    65    29    64 1   
    66    30    65 1   
    67    30    66 1   
    68    30    67 1   
    69    31    68 1   
    70    31    69 1   
    71    31    70 1   
@<TRIPOS>SUBSTRUCTURE
     1 PI3         1 TEMP              0 ****  ****    0 ROOT
