@<TRIPOS>MOLECULE
PI3
   70    71     1     0     0
SMALL
No Charge or Current Charge


@<TRIPOS>ATOM
      1 C1           1.5650     1.1500    -6.1690 c3         1 PI3      -0.094400
      2 C2           2.2120     0.0170    -3.9070 c          1 PI3       0.606100
      3 O3           2.2890    -1.1770    -4.1560 o          1 PI3      -0.593100
      4 C4           2.5320     1.1010    -4.9510 c3         1 PI3      -0.157400
      5 N5           1.9100     0.4940    -2.6470 ns         1 PI3      -0.504900
      6 C6           1.6820    -0.3380    -1.4360 c3         1 PI3       0.040700
      7 C7           0.5380     0.3060    -0.5910 c          1 PI3       0.587100
      8 O8           0.3520     1.5170    -0.5490 o          1 PI3      -0.616100
      9 C9           3.0020    -0.5050    -0.6090 c3         1 PI3      -0.068700
     10 C10          2.7990    -1.3250     0.6900 c3         1 PI3      -0.088600
     11 C11          4.1650    -1.1080    -1.4360 c3         1 PI3      -0.088600
     12 N12         -0.2780    -0.5860     0.0860 ns         1 PI3      -0.483900
     13 C13         -1.6040    -0.2460     0.6440 c3         1 PI3       0.067700
     14 C14         -2.7250    -0.7420    -0.3140 c3         1 PI3      -0.036100
     15 C15         -2.3440    -0.5180    -1.7740 ca         1 PI3      -0.128300
     16 C16         -2.3670     0.7810    -2.3160 ca         1 PI3      -0.076000
     17 C17         -1.8030     1.0300    -3.5780 ca         1 PI3      -0.164500
     18 C18         -1.8180    -1.5810    -2.5330 ca         1 PI3      -0.076000
     19 C19         -1.2540    -1.3300    -3.7930 ca         1 PI3      -0.164500
     20 C20         -1.2050    -0.0240    -4.3000 ca         1 PI3       0.152100
     21 O21         -0.5280     0.1750    -5.4820 os         1 PI3      -0.345100
     22 C22          0.0860     1.4320    -5.8200 c3         1 PI3       0.170600
     23 C23         -1.7700    -0.7510     2.1060 c3         1 PI3       0.165300
     24 O24         -3.0150    -0.3170     2.6630 oh         1 PI3      -0.641000
     25 C25         -0.6610    -0.2440     3.0680 c3         1 PI3       0.123800
     26 N26         -1.1040    -0.3650     4.4830 n7         1 PI3      -0.853400
     27 C27         -0.2160     0.2770     5.4670 c3         1 PI3       0.157800
     28 C28         -0.7880     0.0980     6.8900 c3         1 PI3      -0.077400
     29 C29          0.0140     0.8270     8.0030 c3         1 PI3      -0.059700
     30 C30         -0.7160     0.7370     9.3620 c3         1 PI3      -0.087600
     31 C31          1.4700     0.3160     8.1280 c3         1 PI3      -0.087600
     32 H11          1.6350     0.2140    -6.7380 hc         1 PI3       0.063200
     33 H12A         1.9110     1.9430    -6.8430 hc         1 PI3       0.063200
     34 H41          3.5390     0.9010    -5.3350 hc         1 PI3       0.057700
     35 H42          2.5390     2.0860    -4.4700 hc         1 PI3       0.057700
     36 HN5          1.8530     1.5000    -2.5440 hn         1 PI3       0.326500
     37 H6           1.3290    -1.3280    -1.7530 h1         1 PI3       0.085700
     38 H9           3.3210     0.4990    -0.3010 hc         1 PI3       0.061700
     39 H101         3.7530    -1.4670     1.2120 hc         1 PI3       0.037700
     40 H102         2.1270    -0.8090     1.3840 hc         1 PI3       0.037700
     41 H103         2.3820    -2.3150     0.4680 hc         1 PI3       0.037700
     42 H111         3.8890    -2.0890    -1.8420 hc         1 PI3       0.037700
     43 H112         4.4440    -0.4520    -2.2690 hc         1 PI3       0.037700
     44 H113         5.0590    -1.2370    -0.8140 hc         1 PI3       0.037700
     45 H12         -0.0420    -1.5660    -0.0070 hn         1 PI3       0.315500
     46 H13         -1.6790     0.8490     0.6790 h1         1 PI3       0.078700
     47 H141        -2.9070    -1.8090    -0.1340 hc         1 PI3       0.060700
     48 H142        -3.6640    -0.2270    -0.0780 hc         1 PI3       0.060700
     49 H16         -2.7690     1.6080    -1.7340 ha         1 PI3       0.112000
     50 H17         -1.8140     2.0440    -3.9650 ha         1 PI3       0.123500
     51 H18         -1.7880    -2.5880    -2.1230 ha         1 PI3       0.112000
     52 H19         -0.8010    -2.1430    -4.3550 ha         1 PI3       0.123500
     53 H221        -0.4190     1.8680    -6.6920 h1         1 PI3       0.049700
     54 H222         0.0520     2.1620    -5.0030 h1         1 PI3       0.049700
     55 H23         -1.7330    -1.8500     2.1020 h1         1 PI3       0.067700
     56 H24         -2.7530    -0.1280     3.6000 ho         1 PI3       0.446000
     57 H251        -0.4500     0.8080     2.8300 h1         1 PI3       0.041700
     58 H252         0.2630    -0.8130     2.8960 h1         1 PI3       0.041700
     59 H26         -1.1610    -1.3650     4.7210 hn         1 PI3       0.406000
     60 H271        -0.1220     1.3490     5.2510 h1         1 PI3       0.029200
     61 H272         0.7860    -0.1690     5.4150 h1         1 PI3       0.029200
     62 H281        -0.8430    -0.9720     7.1250 hc         1 PI3       0.045700
     63 H282        -1.8180     0.4750     6.8970 hc         1 PI3       0.045700
     64 H29          0.0620     1.8910     7.7340 hc         1 PI3       0.045700
     65 H301        -0.1760     1.3000    10.1320 hc         1 PI3       0.032367
     66 H302        -1.7280     1.1540     9.2880 hc         1 PI3       0.032367
     67 H303        -0.7980    -0.3060     9.6930 hc         1 PI3       0.032367
     68 H311         1.4890    -0.7610     8.3350 hc         1 PI3       0.032367
     69 H312         2.0360     0.5020     7.2080 hc         1 PI3       0.032367
     70 H313         1.9910     0.8300     8.9440 hc         1 PI3       0.032367
@<TRIPOS>BOND
     1     1     4 1   
     2     1    22 1   
     3     1    32 1   
     4     1    33 1   
     5     2     3 2   
     6     2     4 1   
     7     2     5 1   
     8     4    34 1   
     9     4    35 1   
    10     5     6 1   
    11     5    36 1   
    12     6     7 1   
    13     6     9 1   
    14     6    37 1   
    15     7     8 2   
    16     7    12 1   
    17     9    10 1   
    18     9    11 1   
    19     9    38 1   
    20    10    39 1   
    21    10    40 1   
    22    10    41 1   
    23    11    42 1   
    24    11    43 1   
    25    11    44 1   
    26    12    13 1   
    27    12    45 1   
    28    13    14 1   
    29    13    23 1   
    30    13    46 1   
    31    14    15 1   
    32    14    47 1   
    33    14    48 1   
    34    15    16 ar  
    35    15    18 ar  
    36    16    17 ar  
    37    16    49 1   
    38    17    20 ar  
    39    17    50 1   
    40    18    19 ar  
    41    18    51 1   
    42    19    20 ar  
    43    19    52 1   
    44    20    21 1   
    45    21    22 1   
    46    22    53 1   
    47    22    54 1   
    48    23    24 1   
    49    23    25 1   
    50    23    55 1   
    51    24    56 1   
    52    25    26 1   
    53    25    57 1   
    54    25    58 1   
    55    26    27 1   
    56    26    59 1   
    57    27    28 1   
    58    27    60 1   
    59    27    61 1   
    60    28    29 1   
    61    28    62 1   
    62    28    63 1   
    63    29    30 1   
    64    29    31 1   
    65    29    64 1   
    66    30    65 1   
    67    30    66 1   
    68    30    67 1   
    69    31    68 1   
    70    31    69 1   
    71    31    70 1   
@<TRIPOS>SUBSTRUCTURE
     1 PI3         1 TEMP              0 ****  ****    0 ROOT
