@<TRIPOS>MOLECULE
PI4
   82    84     1     0     0
SMALL
bcc


@<TRIPOS>ATOM
      1 C1           1.5060    -0.3570     6.2160 c3         1 PI4      -0.094400
      2 C2           1.6570    -0.4650     3.6460 c          1 PI4       0.672100
      3 O3           1.9100     0.7230     3.5550 o          1 PI4      -0.569100
      4 C4           1.6480    -1.2140     4.9650 c3         1 PI4      -0.156400
      5 N5           1.4250    -1.2640     2.5800 ns         1 PI4      -0.576900
      6 C6           1.2810    -0.8110     1.2200 c3         1 PI4       0.046700
      7 C7          -0.1370    -1.1430     0.7620 c          1 PI4       0.648100
      8 O8          -0.5720    -2.2750     0.9020 o          1 PI4      -0.624100
      9 C9           2.2790    -1.5110     0.2990 c3         1 PI4      -0.175400
     10 C10          3.7050    -1.1280     0.6420 c          1 PI4       0.672100
     11 O11          4.0250     0.0370     0.8200 o          1 PI4      -0.592100
     12 N12          4.5700    -2.1490     0.7040 nt         1 PI4      -0.677000
     13 N13         -0.8230    -0.1380     0.1980 ns         1 PI4      -0.545900
     14 C14         -2.2400    -0.2160    -0.0910 c3         1 PI4       0.066700
     15 C15         -3.0370     0.7290     0.8340 c3         1 PI4      -0.036100
     16 C16         -2.4260     0.8270     2.2050 ca         1 PI4      -0.127300
     17 C17         -2.3490    -0.2680     3.0580 ca         1 PI4      -0.092500
     18 C18         -1.6750    -0.2070     4.2710 ca         1 PI4      -0.182000
     19 C19         -1.8240     2.0100     2.6260 ca         1 PI4      -0.092500
     20 C20         -1.1560     2.0940     3.8330 ca         1 PI4      -0.182000
     21 C21         -1.0590     0.9790     4.6630 ca         1 PI4       0.151100
     22 O22         -0.3930     1.1700     5.8220 os         1 PI4      -0.322900
     23 C23          0.1010     0.0870     6.5950 c3         1 PI4       0.148400
     24 C24         -2.5050     0.0760    -1.5750 c3         1 PI4       0.134100
     25 O25         -3.8890     0.0760    -1.8410 oh         1 PI4      -0.572800
     26 C26         -1.7470    -0.8850    -2.4860 c3         1 PI4       0.148800
     27 N27         -1.8750    -0.5280    -3.8930 n3         1 PI4      -0.712600
     28 C28         -0.6000    -0.2670    -4.5350 c6         1 PI4       0.115500
     29 C29         -0.7950     0.1900    -5.9840 c6         1 PI4      -0.074400
     30 C30         -1.6370    -0.7980    -6.7770 c6         1 PI4      -0.074400
     31 C31         -2.9530    -1.0360    -6.0520 c6         1 PI4      -0.078400
     32 C32         -2.6870    -1.4850    -4.6270 c6         1 PI4       0.184800
     33 C33          0.1370     0.8590    -3.8060 c          1 PI4       0.661100
     34 O34         -0.4270     1.9090    -3.5320 o          1 PI4      -0.587100
     35 C35          2.4240     1.5640    -3.0500 c3         1 PI4       0.137400
     36 C36          3.7540     0.8140    -3.0000 c3         1 PI4      -0.103100
     37 C37          2.0590     2.0360    -1.6420 c3         1 PI4      -0.103100
     38 C38          2.5550     2.7560    -4.0000 c3         1 PI4      -0.103100
     39 N39          1.4300     0.6070    -3.5540 ns         1 PI4      -0.581900
     40 H11          2.1630     0.5130     6.1620 hc         1 PI4       0.062700
     41 H12          1.8630    -0.9510     7.0610 hc         1 PI4       0.062700
     42 H41          2.6030    -1.7480     5.0170 hc         1 PI4       0.056200
     43 H42          0.8810    -1.9940     4.9500 hc         1 PI4       0.056200
     44 HN5          1.1670    -2.2230     2.7580 hn         1 PI4       0.318500
     45 H6           1.4610     0.2640     1.2100 h1         1 PI4       0.112700
     46 H91          2.1300    -2.5920     0.3410 hc         1 PI4       0.068700
     47 H92          2.0970    -1.2120    -0.7390 hc         1 PI4       0.068700
     48 H121         5.5460    -1.9830     0.8880 hn         1 PI4       0.314000
     49 H122         4.2770    -3.1020     0.5770 hn         1 PI4       0.314000
     50 H13         -0.4020     0.7790     0.1950 hn         1 PI4       0.326500
     51 H14         -2.5390    -1.2450     0.1220 h1         1 PI4       0.073700
     52 H151        -3.0740     1.7280     0.3890 hc         1 PI4       0.061700
     53 H152        -4.0680     0.3760     0.8860 hc         1 PI4       0.061700
     54 H17         -2.8070    -1.2080     2.7700 ha         1 PI4       0.132000
     55 H18         -1.6450    -1.0930     4.8910 ha         1 PI4       0.140500
     56 H19         -1.8640     2.8850     1.9870 ha         1 PI4       0.132000
     57 H20         -0.6860     3.0220     4.1330 ha         1 PI4       0.140500
     58 H231         0.1240     0.4650     7.6180 h1         1 PI4       0.048700
     59 H232        -0.5870    -0.7630     6.5930 h1         1 PI4       0.048700
     60 H24         -2.1630     1.0920    -1.7930 h1         1 PI4       0.105700
     61 H25         -4.2350    -0.8070    -1.6690 ho         1 PI4       0.390000
     62 H261        -2.1070    -1.9090    -2.3130 h1         1 PI4       0.038200
     63 H262        -0.6950    -0.9030    -2.1880 h1         1 PI4       0.038200
     64 H28          0.0330    -1.1740    -4.5420 h1         1 PI4       0.014700
     65 H291        -1.2920     1.1630    -5.9780 hc         1 PI4       0.057700
     66 H292         0.1850     0.3290    -6.4480 hc         1 PI4       0.057700
     67 H301        -1.8080    -0.4180    -7.7860 hc         1 PI4       0.039200
     68 H302        -1.1000    -1.7460    -6.8820 hc         1 PI4       0.039200
     69 H311        -3.5430    -0.1150    -6.0410 hc         1 PI4       0.052200
     70 H312        -3.5490    -1.7950    -6.5630 hc         1 PI4       0.052200
     71 H321        -3.6320    -1.6090    -4.0960 h1         1 PI4       0.028200
     72 H322        -2.2110    -2.4820    -4.6540 h1         1 PI4       0.028200
     73 H361         4.5390     1.4670    -2.6200 hc         1 PI4       0.044922
     74 H362         3.6980    -0.0530    -2.3380 hc         1 PI4       0.044922
     75 H363         4.0530     0.4680    -3.9910 hc         1 PI4       0.044922
     76 H371         2.0580     1.2010    -0.9430 hc         1 PI4       0.044922
     77 H372         2.7980     2.7550    -1.2860 hc         1 PI4       0.044922
     78 H373         1.0840     2.5180    -1.6190 hc         1 PI4       0.044922
     79 H381         2.7740     2.4200    -5.0140 hc         1 PI4       0.044922
     80 H382         1.6450     3.3540    -4.0230 hc         1 PI4       0.044922
     81 H383         3.3730     3.4020    -3.6770 hc         1 PI4       0.044922
     82 H39          1.7820    -0.2870    -3.8590 hn         1 PI4       0.303500
@<TRIPOS>BOND
     1     1     4 1   
     2     1    23 1   
     3     1    40 1   
     4     1    41 1   
     5     2     3 2   
     6     2     4 1   
     7     2     5 1   
     8     4    42 1   
     9     4    43 1   
    10     5     6 1   
    11     5    44 1   
    12     6     7 1   
    13     6     9 1   
    14     6    45 1   
    15     7     8 2   
    16     7    13 1   
    17     9    10 1   
    18     9    46 1   
    19     9    47 1   
    20    10    11 2   
    21    10    12 1   
    22    12    48 1   
    23    12    49 1   
    24    13    14 1   
    25    13    50 1   
    26    14    15 1   
    27    14    24 1   
    28    14    51 1   
    29    15    16 1   
    30    15    52 1   
    31    15    53 1   
    32    16    17 ar  
    33    16    19 ar  
    34    17    18 ar  
    35    17    54 1   
    36    18    21 ar  
    37    18    55 1   
    38    19    20 ar  
    39    19    56 1   
    40    20    21 ar  
    41    20    57 1   
    42    21    22 1   
    43    22    23 1   
    44    23    58 1   
    45    23    59 1   
    46    24    25 1   
    47    24    26 1   
    48    24    60 1   
    49    25    61 1   
    50    26    27 1   
    51    26    62 1   
    52    26    63 1   
    53    27    28 1   
    54    27    32 1   
    55    28    29 1   
    56    28    33 1   
    57    28    64 1   
    58    29    30 1   
    59    29    65 1   
    60    29    66 1   
    61    30    31 1   
    62    30    67 1   
    63    30    68 1   
    64    31    32 1   
    65    31    69 1   
    66    31    70 1   
    67    32    71 1   
    68    32    72 1   
    69    33    34 2   
    70    33    39 1   
    71    35    36 1   
    72    35    37 1   
    73    35    38 1   
    74    35    39 1   
    75    36    73 1   
    76    36    74 1   
    77    36    75 1   
    78    37    76 1   
    79    37    77 1   
    80    37    78 1   
    81    38    79 1   
    82    38    80 1   
    83    38    81 1   
    84    39    82 1   
@<TRIPOS>SUBSTRUCTURE
     1 PI4         1 TEMP              0 ****  ****    0 ROOT
