@<TRIPOS>MOLECULE
PI4
   82    84     1     0     0
SMALL
No Charge or Current Charge


@<TRIPOS>ATOM
      1 C1          -0.0490    -0.8460     7.2370 c3         1 PI4      -0.094400
      2 C2           1.1930    -1.3700     5.0080 c          1 PI4       0.605100
      3 O3           2.2080    -0.6920     5.0200 o          1 PI4      -0.569100
      4 C4           0.5540    -1.9270     6.2910 c3         1 PI4      -0.156400
      5 N5           0.5720    -1.7490     3.8340 ns         1 PI4      -0.509900
      6 C6           1.0000    -1.3620     2.4660 c3         1 PI4       0.046700
      7 C7          -0.2480    -1.1430     1.5610 c          1 PI4       0.581100
      8 O8          -1.3290    -1.6770     1.7820 o          1 PI4      -0.624100
      9 C9           1.9510    -2.4230     1.8510 c3         1 PI4      -0.175400
     10 C10          3.2910    -2.5060     2.5800 c          1 PI4       0.605100
     11 O11          4.1980    -1.7130     2.3950 o          1 PI4      -0.592100
     12 N12          3.4480    -3.5440     3.4280 nt         1 PI4      -0.610000
     13 N13         -0.0570    -0.2770     0.4980 ns         1 PI4      -0.478900
     14 C14         -1.1550     0.3860    -0.2390 c3         1 PI4       0.066700
     15 C15         -1.3800     1.8240     0.3190 c3         1 PI4      -0.036100
     16 C16         -1.2550     1.8530     1.8390 ca         1 PI4      -0.127300
     17 C17         -2.2830     1.3200     2.6390 ca         1 PI4      -0.074500
     18 C18         -2.0710     1.1060     4.0120 ca         1 PI4      -0.164000
     19 C19         -0.0430     2.2510     2.4360 ca         1 PI4      -0.074500
     20 C20          0.1680     2.0350     3.8070 ca         1 PI4      -0.164000
     21 C21         -0.8230     1.4210     4.5870 ca         1 PI4       0.151100
     22 O22         -0.4990     1.0970     5.8850 os         1 PI4      -0.346100
     23 C23         -1.1510     0.0310     6.6010 c3         1 PI4       0.171600
     24 C24         -0.9210     0.3510    -1.7740 c3         1 PI4       0.157300
     25 O25         -2.0420     0.9030    -2.4780 oh         1 PI4      -0.635000
     26 C26         -0.7120    -1.0850    -2.3360 c3         1 PI4       0.148800
     27 N27         -1.0180    -1.1970    -3.7970 n3         1 PI4      -0.712600
     28 C28          0.1320    -0.8520    -4.7300 c6         1 PI4       0.115500
     29 C29         -0.4280    -0.7950    -6.1860 c6         1 PI4      -0.074400
     30 C30         -1.0510    -2.1470    -6.5980 c6         1 PI4      -0.074400
     31 C31         -2.1420    -2.5540    -5.5870 c6         1 PI4      -0.078400
     32 C32         -1.5990    -2.5270    -4.1400 c6         1 PI4       0.184800
     33 C33          0.9980     0.4190    -4.3710 c          1 PI4       0.594100
     34 O34          1.8440     0.3810    -3.4850 o          1 PI4      -0.587100
     35 C35          1.3510     2.8960    -4.9230 c3         1 PI4       0.137400
     36 C36          0.6900     3.8360    -5.9560 c3         1 PI4      -0.103100
     37 C37          2.8740     2.8290    -5.2010 c3         1 PI4      -0.103100
     38 C38          1.0790     3.4420    -3.4970 c3         1 PI4      -0.103100
     39 N39          0.7360     1.5740    -5.0940 ns         1 PI4      -0.514900
     40 H11          0.7510    -0.2040     7.6260 hc         1 PI4       0.062700
     41 H12         -0.4800    -1.3580     8.1060 hc         1 PI4       0.062700
     42 H41          1.3330    -2.4600     6.8490 hc         1 PI4       0.056200
     43 H42         -0.2370    -2.6400     6.0300 hc         1 PI4       0.056200
     44 HN5         -0.2790    -2.2930     3.9250 hn         1 PI4       0.318500
     45 H6           1.5220    -0.3970     2.5190 h1         1 PI4       0.112700
     46 H91          1.4420    -3.3930     1.8900 hc         1 PI4       0.068700
     47 H92          2.1490    -2.1490     0.8070 hc         1 PI4       0.068700
     48 H121         4.3190    -3.6470     3.9260 hn         1 PI4       0.314000
     49 H122         2.6960    -4.2030     3.5670 hn         1 PI4       0.314000
     50 H13          0.8780     0.0970     0.3870 hn         1 PI4       0.326500
     51 H14         -2.0760    -0.1800    -0.0450 h1         1 PI4       0.073700
     52 H151        -0.6460     2.5050    -0.1300 hc         1 PI4       0.061700
     53 H152        -2.3660     2.1880     0.0070 hc         1 PI4       0.061700
     54 H17         -3.2210     1.0070     2.1860 ha         1 PI4       0.114000
     55 H18         -2.8680     0.6640     4.6020 ha         1 PI4       0.122500
     56 H19          0.7620     2.6590     1.8280 ha         1 PI4       0.114000
     57 H20          1.1260     2.2850     4.2530 ha         1 PI4       0.122500
     58 H231        -1.7930     0.4490     7.3880 h1         1 PI4       0.048700
     59 H232        -1.7680    -0.6030     5.9520 h1         1 PI4       0.048700
     60 H24         -0.0250     0.9460    -1.9840 h1         1 PI4       0.105700
     61 H25         -2.0910     0.3220    -3.2770 ho         1 PI4       0.429000
     62 H261        -1.3850    -1.7450    -1.7710 h1         1 PI4       0.038200
     63 H262         0.3090    -1.4290    -2.1200 h1         1 PI4       0.038200
     64 H28          0.8580    -1.6780    -4.6980 h1         1 PI4       0.014700
     65 H291        -1.1850    -0.0040    -6.2720 hc         1 PI4       0.057700
     66 H292         0.3790    -0.5440    -6.8890 hc         1 PI4       0.057700
     67 H301        -1.4780    -2.0770    -7.6080 hc         1 PI4       0.039200
     68 H302        -0.2710    -2.9200    -6.6370 hc         1 PI4       0.039200
     69 H311        -2.9970    -1.8690    -5.6670 hc         1 PI4       0.052200
     70 H312        -2.5200    -3.5580    -5.8230 hc         1 PI4       0.052200
     71 H321        -2.4270    -2.7690    -3.4580 h1         1 PI4       0.028200
     72 H322        -0.8400    -3.3140    -4.0210 h1         1 PI4       0.028200
     73 H361         1.1040     4.8500    -5.8870 hc         1 PI4       0.044922
     74 H362         0.8550     3.4740    -6.9790 hc         1 PI4       0.044922
     75 H363        -0.3930     3.9020    -5.7910 hc         1 PI4       0.044922
     76 H371         3.0700     2.3990    -6.1900 hc         1 PI4       0.044922
     77 H372         3.3160     3.8320    -5.1740 hc         1 PI4       0.044922
     78 H373         3.3960     2.2200    -4.4550 hc         1 PI4       0.044922
     79 H381         0.0050     3.4350    -3.2750 hc         1 PI4       0.044922
     80 H382         1.5890     2.8480    -2.7310 hc         1 PI4       0.044922
     81 H383         1.4370     4.4740    -3.4030 hc         1 PI4       0.044922
     82 H39          0.0040     1.4960    -5.7880 hn         1 PI4       0.303500
@<TRIPOS>BOND
     1     1     4 1   
     2     1    23 1   
     3     1    40 1   
     4     1    41 1   
     5     2     3 2   
     6     2     4 1   
     7     2     5 1   
     8     4    42 1   
     9     4    43 1   
    10     5     6 1   
    11     5    44 1   
    12     6     7 1   
    13     6     9 1   
    14     6    45 1   
    15     7     8 2   
    16     7    13 1   
    17     9    10 1   
    18     9    46 1   
    19     9    47 1   
    20    10    11 2   
    21    10    12 1   
    22    12    48 1   
    23    12    49 1   
    24    13    14 1   
    25    13    50 1   
    26    14    15 1   
    27    14    24 1   
    28    14    51 1   
    29    15    16 1   
    30    15    52 1   
    31    15    53 1   
    32    16    17 ar  
    33    16    19 ar  
    34    17    18 ar  
    35    17    54 1   
    36    18    21 ar  
    37    18    55 1   
    38    19    20 ar  
    39    19    56 1   
    40    20    21 ar  
    41    20    57 1   
    42    21    22 1   
    43    22    23 1   
    44    23    58 1   
    45    23    59 1   
    46    24    25 1   
    47    24    26 1   
    48    24    60 1   
    49    25    61 1   
    50    26    27 1   
    51    26    62 1   
    52    26    63 1   
    53    27    28 1   
    54    27    32 1   
    55    28    29 1   
    56    28    33 1   
    57    28    64 1   
    58    29    30 1   
    59    29    65 1   
    60    29    66 1   
    61    30    31 1   
    62    30    67 1   
    63    30    68 1   
    64    31    32 1   
    65    31    69 1   
    66    31    70 1   
    67    32    71 1   
    68    32    72 1   
    69    33    34 2   
    70    33    39 1   
    71    35    36 1   
    72    35    37 1   
    73    35    38 1   
    74    35    39 1   
    75    36    73 1   
    76    36    74 1   
    77    36    75 1   
    78    37    76 1   
    79    37    77 1   
    80    37    78 1   
    81    38    79 1   
    82    38    80 1   
    83    38    81 1   
    84    39    82 1   
@<TRIPOS>SUBSTRUCTURE
     1 PI4         1 TEMP              0 ****  ****    0 ROOT
