@<TRIPOS>MOLECULE
PI5
  102   105     1     0     0
SMALL
No Charge or Current Charge


@<TRIPOS>ATOM
      1 C1           4.6170     2.4070     8.0560 c5         1 PI5      -0.095400
      2 C2           4.0150     1.1950     8.8320 c5         1 PI5       0.098000
      3 C3           3.4510     3.2430     9.9710 c          1 PI5       0.561000
      4 O4           3.4510     4.0140    10.9200 o          1 PI5      -0.573000
      5 C5           3.6490     3.5370     8.4890 c5         1 PI5      -0.160400
      6 N6           3.5210     1.8500    10.0670 n          1 PI5      -0.410800
      7 C7           3.5540     1.2120    11.4160 c3         1 PI5       0.044700
      8 C8           2.9540    -0.2310    11.4310 c3         1 PI5      -0.067700
      9 C9           3.0410    -0.8960    12.8290 c3         1 PI5      -0.089100
     10 C10          1.4900    -0.2500    10.9240 c3         1 PI5      -0.089100
     11 C11          4.9920     1.2340    12.0090 c          1 PI5       0.588100
     12 O12          5.9270     0.6190    11.5090 o          1 PI5      -0.607100
     13 N13          5.1390     1.9690    13.1680 ns         1 PI5      -0.498900
     14 C14          6.3950     2.0970    13.9270 c3         1 PI5       0.105700
     15 C15          6.9940     3.5180    13.7580 c3         1 PI5      -0.033100
     16 C16          7.1720     3.9300    12.2970 ca         1 PI5      -0.115300
     17 C17          8.0710     3.2330    11.4650 ca         1 PI5      -0.063500
     18 C18          6.4360     5.0080    11.7640 ca         1 PI5      -0.063500
     19 C19          8.2240     3.6040    10.1180 ca         1 PI5      -0.168500
     20 C20          6.5920     5.3780    10.4170 ca         1 PI5      -0.168500
     21 C21          7.4860     4.6750     9.5950 ca         1 PI5       0.121100
     22 C22          6.1920     1.6820    15.4130 c3         1 PI5       0.164300
     23 C23          5.5200     0.2920    15.5710 c3         1 PI5       0.117800
     24 O24          7.4350     1.5950    16.1120 oh         1 PI5      -0.666000
     25 O25          7.6440     5.0290     8.2880 oh         1 PI5      -0.544100
     26 N26          5.7940    -0.2690    16.9310 n7         1 PI5      -0.891400
     27 C27          5.3810    -1.6970    17.1780 c3         1 PI5       0.110500
     28 C28          3.8350    -1.8600    17.1960 c3         1 PI5      -0.044100
     29 C29          3.4330    -3.3340    17.2600 ca         1 PI5      -0.133300
     30 C30          3.6860    -4.1000    18.4150 ca         1 PI5      -0.063000
     31 C31          3.4310    -5.4840    18.4220 ca         1 PI5      -0.166500
     32 C32          2.9000    -3.9640    16.1190 ca         1 PI5      -0.063000
     33 C33          2.6470    -5.3440    16.1280 ca         1 PI5      -0.166500
     34 C34          2.9230    -6.1160    17.2660 ca         1 PI5       0.143100
     35 O35          2.6520    -7.4690    17.1870 os         1 PI5      -0.365100
     36 C36          3.0200    -8.4370    18.1910 c3         1 PI5       0.170600
     37 C37          6.0240    -2.7870    16.2390 c          1 PI5       0.610100
     38 O38          5.8130    -2.8640    15.0340 o          1 PI5      -0.598100
     39 N39          6.7820    -3.7260    16.9090 ns         1 PI5      -0.491900
     40 C40          7.0320    -5.1030    16.4300 c3         1 PI5       0.045700
     41 C41          6.6990    -6.0570    17.6170 c          1 PI5       0.580100
     42 O42          7.0120    -5.7970    18.7740 o          1 PI5      -0.629100
     43 C43          8.5000    -5.2780    15.9210 c3         1 PI5      -0.065700
     44 C44          8.8530    -4.3780    14.6990 c3         1 PI5      -0.067400
     45 C45          8.8720    -6.7600    15.6550 c3         1 PI5      -0.090100
     46 C46          8.1380    -4.7430    13.3770 c3         1 PI5      -0.090100
     47 N47          6.0150    -7.2110    17.2960 ns         1 PI5      -0.491900
     48 C48          5.6380    -8.2380    18.2700 c3         1 PI5       0.101000
     49 C49          4.4000    -9.0580    17.8530 c3         1 PI5      -0.121400
     50 H11          5.6410     2.6140     8.3890 hc         1 PI5       0.063200
     51 H12          4.6440     2.2480     6.9720 hc         1 PI5       0.063200
     52 H21          3.1830     0.7370     8.2800 h1         1 PI5       0.060700
     53 H22A         4.7670     0.4210     9.0320 h1         1 PI5       0.060700
     54 H51          4.0050     4.5580     8.3180 hc         1 PI5       0.071700
     55 H52          2.6920     3.3810     7.9780 hc         1 PI5       0.071700
     56 H7           2.9290     1.8160    12.0850 h1         1 PI5       0.081700
     57 H8           3.5450    -0.8530    10.7470 hc         1 PI5       0.068700
     58 H91          2.5720    -1.8870    12.8170 hc         1 PI5       0.037700
     59 H92          4.0820    -1.0340    13.1420 hc         1 PI5       0.037700
     60 H93          2.5300    -0.2870    13.5850 hc         1 PI5       0.037700
     61 H101         1.0920    -1.2720    10.9260 hc         1 PI5       0.037700
     62 H102         0.8480     0.3670    11.5650 hc         1 PI5       0.037700
     63 H103         1.4160     0.1310     9.9000 hc         1 PI5       0.037700
     64 H13          4.3280     2.4860    13.4860 hn         1 PI5       0.315500
     65 H14          7.1230     1.3900    13.5060 h1         1 PI5       0.098700
     66 H151         6.3500     4.2350    14.2810 hc         1 PI5       0.061700
     67 H152         7.9650     3.5590    14.2660 hc         1 PI5       0.061700
     68 H17          8.6470     2.3990    11.8610 ha         1 PI5       0.118000
     69 H18          5.7330     5.5540    12.3900 ha         1 PI5       0.118000
     70 H19          8.9160     3.0590     9.4810 ha         1 PI5       0.121000
     71 H20          6.0130     6.2080    10.0200 ha         1 PI5       0.121000
     72 H22          5.5490     2.4250    15.9040 h1         1 PI5       0.025700
     73 H231         4.4420     0.3930    15.3840 h1         1 PI5       0.065200
     74 H232         5.9280    -0.3650    14.7920 h1         1 PI5       0.065200
     75 H24          7.2700     0.7980    16.6820 ho         1 PI5       0.472000
     76 H25          7.0790     5.8100     8.1070 ho         1 PI5       0.458000
     77 H26          5.3130     0.3210    17.6270 hn         1 PI5       0.420000
     78 H27          5.7160    -1.9590    18.1910 h1         1 PI5       0.058700
     79 H281         3.4210    -1.3130    18.0520 hc         1 PI5       0.057200
     80 H282         3.4040    -1.4010    16.2990 hc         1 PI5       0.057200
     81 H30          4.1040    -3.6280    19.3020 ha         1 PI5       0.118500
     82 H31          3.6490    -6.0430    19.3250 ha         1 PI5       0.124500
     83 H32          2.7120    -3.3910    15.2130 ha         1 PI5       0.118500
     84 H33          2.2480    -5.8240    15.2380 ha         1 PI5       0.124500
     85 H361         2.9950    -8.0350    19.2100 h1         1 PI5       0.055200
     86 H362         2.2870    -9.2540    18.1650 h1         1 PI5       0.055200
     87 H39          6.9170    -3.5600    17.9000 hn         1 PI5       0.328500
     88 H40          6.3290    -5.3370    15.6200 h1         1 PI5       0.083700
     89 H43          9.1530    -4.9460    16.7390 hc         1 PI5       0.061700
     90 H441         8.6380    -3.3310    14.9410 hc         1 PI5       0.045700
     91 H442         9.9350    -4.4260    14.5270 hc         1 PI5       0.045700
     92 H451         9.8830    -6.8370    15.2370 hc         1 PI5       0.036367
     93 H452         8.8580    -7.3440    16.5830 hc         1 PI5       0.036367
     94 H453         8.1730    -7.2240    14.9490 hc         1 PI5       0.036367
     95 H461         8.3970    -4.0170    12.5970 hc         1 PI5       0.035367
     96 H462         8.4420    -5.7350    13.0250 hc         1 PI5       0.035367
     97 H463         7.0490    -4.7370    13.4940 hc         1 PI5       0.035367
     98 H47          5.7680    -7.3510    16.3240 hn         1 PI5       0.324500
     99 H481         6.4930    -8.9200    18.3730 h1         1 PI5       0.055700
    100 H482         5.4610    -7.7800    19.2530 h1         1 PI5       0.055700
    101 H491         4.4550   -10.0130    18.3890 hc         1 PI5       0.059700
    102 H492         4.4500    -9.3100    16.7860 hc         1 PI5       0.059700
@<TRIPOS>BOND
     1     1     2 1   
     2     1     5 1   
     3     1    50 1   
     4     1    51 1   
     5     2     6 1   
     6     2    52 1   
     7     2    53 1   
     8     3     4 2   
     9     3     5 1   
    10     3     6 1   
    11     5    54 1   
    12     5    55 1   
    13     6     7 1   
    14     7     8 1   
    15     7    11 1   
    16     7    56 1   
    17     8     9 1   
    18     8    10 1   
    19     8    57 1   
    20     9    58 1   
    21     9    59 1   
    22     9    60 1   
    23    10    61 1   
    24    10    62 1   
    25    10    63 1   
    26    11    12 2   
    27    11    13 1   
    28    13    14 1   
    29    13    64 1   
    30    14    15 1   
    31    14    22 1   
    32    14    65 1   
    33    15    16 1   
    34    15    66 1   
    35    15    67 1   
    36    16    17 ar  
    37    16    18 ar  
    38    17    19 ar  
    39    17    68 1   
    40    18    20 ar  
    41    18    69 1   
    42    19    21 ar  
    43    19    70 1   
    44    20    21 ar  
    45    20    71 1   
    46    21    25 1   
    47    22    23 1   
    48    22    24 1   
    49    22    72 1   
    50    23    26 1   
    51    23    73 1   
    52    23    74 1   
    53    24    75 1   
    54    25    76 1   
    55    26    27 1   
    56    26    77 1   
    57    27    28 1   
    58    27    37 1   
    59    27    78 1   
    60    28    29 1   
    61    28    79 1   
    62    28    80 1   
    63    29    30 ar  
    64    29    32 ar  
    65    30    31 ar  
    66    30    81 1   
    67    31    34 ar  
    68    31    82 1   
    69    32    33 ar  
    70    32    83 1   
    71    33    34 ar  
    72    33    84 1   
    73    34    35 1   
    74    35    36 1   
    75    36    49 1   
    76    36    85 1   
    77    36    86 1   
    78    37    38 2   
    79    37    39 1   
    80    39    40 1   
    81    39    87 1   
    82    40    41 1   
    83    40    43 1   
    84    40    88 1   
    85    41    42 2   
    86    41    47 1   
    87    43    44 1   
    88    43    45 1   
    89    43    89 1   
    90    44    46 1   
    91    44    90 1   
    92    44    91 1   
    93    45    92 1   
    94    45    93 1   
    95    45    94 1   
    96    46    95 1   
    97    46    96 1   
    98    46    97 1   
    99    47    48 1   
   100    47    98 1   
   101    48    49 1   
   102    48    99 1   
   103    48   100 1   
   104    49   101 1   
   105    49   102 1   
@<TRIPOS>SUBSTRUCTURE
     1 PI5         1 TEMP              0 ****  ****    0 ROOT
