@<TRIPOS>MOLECULE
PI5
  102   105     1     0     0
SMALL
abcg2


@<TRIPOS>ATOM
      1 C1           4.0040     2.6390     8.1380 c5         1 PI5      -0.095400
      2 C2           3.4570     1.6720     9.1980 c5         1 PI5       0.098000
      3 C3           3.4200     3.8350    10.1440 c          1 PI5       0.561000
      4 O4           3.3090     4.7290    10.9810 o          1 PI5      -0.573000
      5 C5           3.5920     4.0230     8.6490 c5         1 PI5      -0.160400
      6 N6           3.3710     2.5060    10.3990 n          1 PI5      -0.410800
      7 C7           3.1030     1.9720    11.7270 c3         1 PI5       0.044700
      8 C8           1.8420     1.0970    11.7850 c3         1 PI5      -0.067700
      9 C9           1.6290     0.5770    13.2080 c3         1 PI5      -0.089100
     10 C10          0.6230     1.8840    11.3050 c3         1 PI5      -0.089100
     11 C11          4.3530     1.2170    12.1950 c          1 PI5       0.588100
     12 O12          4.6480     0.1130    11.7370 o          1 PI5      -0.607100
     13 N13          5.0930     1.8700    13.1080 ns         1 PI5      -0.498900
     14 C14          6.3930     1.4190    13.5790 c3         1 PI5       0.105700
     15 C15          7.4570     2.4890    13.2870 c3         1 PI5      -0.033100
     16 C16          7.4980     2.8670    11.8290 ca         1 PI5      -0.115300
     17 C17          8.0180     1.9910    10.8740 ca         1 PI5      -0.063500
     18 C18          6.9620     4.0730    11.3820 ca         1 PI5      -0.063500
     19 C19          8.0040     2.3020     9.5220 ca         1 PI5      -0.168500
     20 C20          6.9440     4.4040    10.0310 ca         1 PI5      -0.168500
     21 C21          7.4640     3.5140     9.0980 ca         1 PI5       0.121100
     22 C22          6.3220     1.0500    15.0620 c3         1 PI5       0.164300
     23 C23          5.2610    -0.0180    15.3360 c3         1 PI5       0.117800
     24 O24          7.5980     0.5550    15.4610 oh         1 PI5      -0.666000
     25 O25          7.4660     3.7780     7.7550 oh         1 PI5      -0.544100
     26 N26          5.4550    -0.5420    16.6910 n7         1 PI5      -0.891400
     27 C27          5.0380    -1.9220    16.9490 c3         1 PI5       0.110500
     28 C28          3.5990    -2.2870    16.4820 c3         1 PI5      -0.044100
     29 C29          3.3720    -3.7770    16.4790 ca         1 PI5      -0.133300
     30 C30          3.3220    -4.5170    17.6580 ca         1 PI5      -0.063000
     31 C31          3.3070    -5.9090    17.6520 ca         1 PI5      -0.166500
     32 C32          3.3610    -4.4820    15.2740 ca         1 PI5      -0.063000
     33 C33          3.3410    -5.8660    15.2470 ca         1 PI5      -0.166500
     34 C34          3.3400    -6.5930    16.4380 ca         1 PI5       0.143100
     35 O35          3.3670    -7.9490    16.2870 os         1 PI5      -0.365100
     36 C36          3.5550    -8.8350    17.3990 c3         1 PI5       0.170600
     37 C37          6.0260    -2.9180    16.3370 c          1 PI5       0.610100
     38 O38          6.2380    -2.9790    15.1270 o          1 PI5      -0.598100
     39 N39          6.5890    -3.7500    17.2310 ns         1 PI5      -0.491900
     40 C40          7.2810    -4.9860    16.9010 c3         1 PI5       0.045700
     41 C41          6.7510    -6.0310    17.8870 c          1 PI5       0.580100
     42 O42          6.7070    -5.7640    19.0910 o          1 PI5      -0.629100
     43 C43          8.8160    -4.8590    17.0470 c3         1 PI5      -0.065700
     44 C44          9.4000    -3.7990    16.1000 c3         1 PI5      -0.067400
     45 C45          9.5060    -6.2160    16.8940 c3         1 PI5      -0.090100
     46 C46          9.4100    -4.1740    14.6180 c3         1 PI5      -0.090100
     47 N47          6.3660    -7.2090    17.3810 ns         1 PI5      -0.491900
     48 C48          5.9660    -8.3240    18.2300 c3         1 PI5       0.101000
     49 C49          5.0000    -9.2920    17.5570 c3         1 PI5      -0.121400
     50 H11          5.0900     2.5640     8.1020 hc         1 PI5       0.063200
     51 H12          3.6140     2.4150     7.1470 hc         1 PI5       0.063200
     52 H21          2.4670     1.2930     8.9310 h1         1 PI5       0.060700
     53 H22A         4.1120     0.8220     9.3750 h1         1 PI5       0.060700
     54 H51          4.3160     4.8090     8.4410 hc         1 PI5       0.071700
     55 H52          2.6280     4.3420     8.2440 hc         1 PI5       0.071700
     56 H7           2.9510     2.8420    12.3660 h1         1 PI5       0.081700
     57 H8           1.9950     0.2400    11.1250 hc         1 PI5       0.068700
     58 H91          0.7210    -0.0250    13.2580 hc         1 PI5       0.037700
     59 H92          2.4610    -0.0430    13.5450 hc         1 PI5       0.037700
     60 H93          1.5210     1.4090    13.9090 hc         1 PI5       0.037700
     61 H101        -0.2680     1.2540    11.3270 hc         1 PI5       0.037700
     62 H102         0.4440     2.7450    11.9540 hc         1 PI5       0.037700
     63 H103         0.7490     2.2520    10.2860 hc         1 PI5       0.037700
     64 H13          4.7880     2.7890    13.3880 hn         1 PI5       0.315500
     65 H14          6.6280     0.5140    13.0190 h1         1 PI5       0.098700
     66 H151         7.2440     3.3730    13.8940 hc         1 PI5       0.061700
     67 H152         8.4220     2.0980    13.6110 hc         1 PI5       0.061700
     68 H17          8.4380     1.0430    11.1920 ha         1 PI5       0.118000
     69 H18          6.5410     4.7670    12.0990 ha         1 PI5       0.118000
     70 H19          8.4060     1.6140     8.7880 ha         1 PI5       0.121000
     71 H20          6.5190     5.3450     9.7020 ha         1 PI5       0.121000
     72 H22          6.0840     1.9560    15.6390 h1         1 PI5       0.025700
     73 H231         4.2640     0.4000    15.1810 h1         1 PI5       0.065200
     74 H232         5.4030    -0.8370    14.6350 h1         1 PI5       0.065200
     75 H24          7.3930    -0.0120    16.2290 ho         1 PI5       0.472000
     76 H25          7.0320     4.6250     7.5860 ho         1 PI5       0.458000
     77 H26          5.0140     0.0680    17.3690 hn         1 PI5       0.420000
     78 H27          5.0730    -2.0420    18.0320 h1         1 PI5       0.058700
     79 H281         2.8990    -1.7700    17.1430 hc         1 PI5       0.057200
     80 H282         3.4460    -1.9030    15.4740 hc         1 PI5       0.057200
     81 H30          3.3330    -4.0030    18.6130 ha         1 PI5       0.118500
     82 H31          3.3050    -6.4360    18.5950 ha         1 PI5       0.124500
     83 H32          3.4040    -3.9350    14.3390 ha         1 PI5       0.118500
     84 H33          3.3530    -6.4040    14.3070 ha         1 PI5       0.124500
     85 H361         3.1750    -8.3970    18.3220 h1         1 PI5       0.055200
     86 H362         2.9370    -9.7010    17.1640 h1         1 PI5       0.055200
     87 H39          6.3410    -3.6530    18.2040 hn         1 PI5       0.328500
     88 H40          7.0220    -5.2540    15.8770 h1         1 PI5       0.083700
     89 H43          8.9860    -4.5050    18.0690 hc         1 PI5       0.061700
     90 H441         8.8500    -2.8650    16.2320 hc         1 PI5       0.045700
     91 H442        10.4260    -3.6010    16.4250 hc         1 PI5       0.045700
     92 H451        10.5910    -6.0900    16.9100 hc         1 PI5       0.036367
     93 H452         9.2380    -6.8960    17.7040 hc         1 PI5       0.036367
     94 H453         9.2380    -6.6990    15.9530 hc         1 PI5       0.036367
     95 H461         9.8130    -3.3500    14.0240 hc         1 PI5       0.035367
     96 H462        10.0300    -5.0520    14.4280 hc         1 PI5       0.035367
     97 H463         8.4030    -4.3790    14.2530 hc         1 PI5       0.035367
     98 H47          6.4540    -7.3640    16.3890 hn         1 PI5       0.324500
     99 H481         6.8600    -8.8740    18.5410 h1         1 PI5       0.055700
    100 H482         5.5180    -7.9050    19.1310 h1         1 PI5       0.055700
    101 H491         4.9760   -10.1940    18.1750 hc         1 PI5       0.059700
    102 H492         5.3870    -9.5990    16.5810 hc         1 PI5       0.059700
@<TRIPOS>BOND
     1     1     2 1   
     2     1     5 1   
     3     1    50 1   
     4     1    51 1   
     5     2     6 1   
     6     2    52 1   
     7     2    53 1   
     8     3     4 2   
     9     3     5 1   
    10     3     6 1   
    11     5    54 1   
    12     5    55 1   
    13     6     7 1   
    14     7     8 1   
    15     7    11 1   
    16     7    56 1   
    17     8     9 1   
    18     8    10 1   
    19     8    57 1   
    20     9    58 1   
    21     9    59 1   
    22     9    60 1   
    23    10    61 1   
    24    10    62 1   
    25    10    63 1   
    26    11    12 2   
    27    11    13 1   
    28    13    14 1   
    29    13    64 1   
    30    14    15 1   
    31    14    22 1   
    32    14    65 1   
    33    15    16 1   
    34    15    66 1   
    35    15    67 1   
    36    16    17 ar  
    37    16    18 ar  
    38    17    19 ar  
    39    17    68 1   
    40    18    20 ar  
    41    18    69 1   
    42    19    21 ar  
    43    19    70 1   
    44    20    21 ar  
    45    20    71 1   
    46    21    25 1   
    47    22    23 1   
    48    22    24 1   
    49    22    72 1   
    50    23    26 1   
    51    23    73 1   
    52    23    74 1   
    53    24    75 1   
    54    25    76 1   
    55    26    27 1   
    56    26    77 1   
    57    27    28 1   
    58    27    37 1   
    59    27    78 1   
    60    28    29 1   
    61    28    79 1   
    62    28    80 1   
    63    29    30 ar  
    64    29    32 ar  
    65    30    31 ar  
    66    30    81 1   
    67    31    34 ar  
    68    31    82 1   
    69    32    33 ar  
    70    32    83 1   
    71    33    34 ar  
    72    33    84 1   
    73    34    35 1   
    74    35    36 1   
    75    36    49 1   
    76    36    85 1   
    77    36    86 1   
    78    37    38 2   
    79    37    39 1   
    80    39    40 1   
    81    39    87 1   
    82    40    41 1   
    83    40    43 1   
    84    40    88 1   
    85    41    42 2   
    86    41    47 1   
    87    43    44 1   
    88    43    45 1   
    89    43    89 1   
    90    44    46 1   
    91    44    90 1   
    92    44    91 1   
    93    45    92 1   
    94    45    93 1   
    95    45    94 1   
    96    46    95 1   
    97    46    96 1   
    98    46    97 1   
    99    47    48 1   
   100    47    98 1   
   101    48    49 1   
   102    48    99 1   
   103    48   100 1   
   104    49   101 1   
   105    49   102 1   
@<TRIPOS>SUBSTRUCTURE
     1 PI5         1 TEMP              0 ****  ****    0 ROOT
