@<TRIPOS>MOLECULE
PI6
   91    93     1     0     0
SMALL
bcc


@<TRIPOS>ATOM
      1 O1           5.0700    -1.5540    -0.9910 o          1 PI6      -0.598000
      2 C            5.1660    -0.3480    -1.0810 c          1 PI6       0.769100
      3 O2           6.2070     0.3160    -1.5850 os         1 PI6      -0.455900
      4 CT           7.4300    -0.3400    -2.0070 c3         1 PI6       0.201800
      5 C1           7.1790    -1.2680    -3.1900 c3         1 PI6      -0.108100
      6 C2           8.3090     0.8270    -2.4440 c3         1 PI6      -0.108100
      7 C3           8.0860    -1.0700    -0.8420 c3         1 PI6      -0.108100
      8 N            4.2040     0.5310    -0.7160 ns         1 PI6      -0.561900
      9 CA           3.0450     0.1610     0.0640 c3         1 PI6       0.134700
     10 C4           1.8080     0.8240    -0.5380 c3         1 PI6       0.134100
     11 OXT          1.9670     2.2210    -0.5000 oh         1 PI6      -0.602800
     12 CB           3.2570     0.4990     1.5510 c3         1 PI6      -0.054100
     13 CG           4.5010    -0.1390     2.1000 ca         1 PI6      -0.084300
     14 CD1          5.6990     0.5670     2.1670 ca         1 PI6      -0.116500
     15 CD2          4.4900    -1.4670     2.5190 ca         1 PI6      -0.116500
     16 CE1          6.8570    -0.0380     2.6380 ca         1 PI6      -0.126500
     17 CE2          5.6430    -2.0760     2.9910 ca         1 PI6      -0.126500
     18 CZ           6.8340    -1.3630     3.0500 ca         1 PI6      -0.126000
     19 CM           0.5100     0.4330     0.1670 c3         1 PI6       0.144800
     20 N1          -0.5720     1.2130    -0.4000 n7         1 PI6      -0.900200
     21 CA1         -1.6780     1.5970     0.4470 c3         1 PI6       0.132500
     22 C5          -2.7010     0.5100     0.8340 c          1 PI6       0.646100
     23 O           -3.5940     0.7700     1.6300 o          1 PI6      -0.614100
     24 CB1         -2.4100     2.8380    -0.1140 c3         1 PI6      -0.016100
     25 CG1         -3.5980     2.5080    -0.9730 ca         1 PI6      -0.098300
     26 CD11        -4.8600     2.9700    -0.6220 ca         1 PI6      -0.110500
     27 CD21        -3.4970     1.6510    -2.0670 ca         1 PI6      -0.110500
     28 CE11        -5.9990     2.5250    -1.2750 ca         1 PI6      -0.145000
     29 CE21        -4.6270     1.1770    -2.7120 ca         1 PI6      -0.145000
     30 CZ1         -5.8860     1.5760    -2.2810 ca         1 PI6       0.107100
     31 N2          -2.5170    -0.6950     0.2780 ns         1 PI6      -0.560900
     32 CA2         -3.2490    -1.9250     0.5350 c3         1 PI6       0.041700
     33 C6          -4.6200    -1.9930    -0.1630 c          1 PI6       0.655100
     34 O3          -4.7950    -2.7870    -1.0780 o          1 PI6      -0.615100
     35 CB2         -3.3390    -2.3560     2.0140 c3         1 PI6      -0.066700
     36 CG11        -1.9580    -2.5260     2.6690 c3         1 PI6      -0.070400
     37 CG2         -4.0940    -3.6850     2.0950 c3         1 PI6      -0.097100
     38 CD12        -1.2880    -1.2700     3.2150 c3         1 PI6      -0.088100
     39 OH          -7.0050     0.9890    -2.7960 os         1 PI6      -0.336900
     40 N3          -5.5930    -1.2180     0.3380 ns         1 PI6      -0.565900
     41 CA3         -7.0050    -1.4060     0.0580 c3         1 PI6       0.103000
     42 C7          -7.6380    -0.3040    -0.7830 c3         1 PI6      -0.129400
     43 C8          -7.2070    -0.3220    -2.2520 c3         1 PI6       0.135400
     44 H11          6.6570    -0.7450    -3.9930 hc         1 PI6       0.048700
     45 H12          8.1350    -1.6110    -3.5870 hc         1 PI6       0.048700
     46 H13          6.6010    -2.1450    -2.9120 hc         1 PI6       0.048700
     47 H21          8.4800     1.5240    -1.6210 hc         1 PI6       0.048700
     48 H22          9.2790     0.4590    -2.7770 hc         1 PI6       0.048700
     49 H23          7.8580     1.3780    -3.2710 hc         1 PI6       0.048700
     50 H31          7.5290    -1.9520    -0.5360 hc         1 PI6       0.048700
     51 H32          9.0870    -1.3880    -1.1350 hc         1 PI6       0.048700
     52 H33          8.1800    -0.4140     0.0240 hc         1 PI6       0.048700
     53 H            4.4270     1.5130    -0.7670 hn         1 PI6       0.331500
     54 HA           2.9160    -0.9180    -0.0360 h1         1 PI6       0.082700
     55 HC           1.7380     0.4740    -1.5810 h1         1 PI6       0.043700
     56 HOR          1.0750     2.5770    -0.6310 ho         1 PI6       0.428000
     57 HB2          3.3070     1.5830     1.6710 hc         1 PI6       0.056200
     58 HB3          2.3940     0.1560     2.1260 hc         1 PI6       0.056200
     59 HD1          5.7270     1.6040     1.8550 ha         1 PI6       0.127000
     60 HD2          3.5660    -2.0340     2.4800 ha         1 PI6       0.127000
     61 HE1          7.7790     0.5290     2.6840 ha         1 PI6       0.129000
     62 HE2          5.6120    -3.1080     3.3160 ha         1 PI6       0.129000
     63 HZ           7.7360    -1.8350     3.4170 ha         1 PI6       0.129000
     64 HM2          0.3740    -0.6550     0.1090 h1         1 PI6       0.046700
     65 HM3          0.5740     0.6910     1.2260 h1         1 PI6       0.046700
     66 H1          -0.8340     0.9060    -1.3270 hn         1 PI6       0.387800
     67 HA1         -1.2320     1.8990     1.4000 h1         1 PI6       0.082700
     68 HB21        -2.7420     3.4570     0.7190 hc         1 PI6       0.066700
     69 HB31        -1.6680     3.4250    -0.6600 hc         1 PI6       0.066700
     70 HD11        -4.9630     3.6560     0.2100 ha         1 PI6       0.127000
     71 HD21        -2.5290     1.3160    -2.4180 ha         1 PI6       0.127000
     72 HE11        -6.9780     2.8690    -0.9640 ha         1 PI6       0.144000
     73 HE21        -4.5290     0.4690    -3.5260 ha         1 PI6       0.144000
     74 H2          -1.8080    -0.7670    -0.4300 hn         1 PI6       0.313500
     75 HA2         -2.6610    -2.6930     0.0300 h1         1 PI6       0.074700
     76 HB          -3.9050    -1.6150     2.5840 hc         1 PI6       0.072700
     77 HG12        -2.0890    -3.2160     3.5070 hc         1 PI6       0.039200
     78 HG13        -1.2860    -3.0400     1.9740 hc         1 PI6       0.039200
     79 HG21        -3.5920    -4.4650     1.5160 hc         1 PI6       0.041367
     80 HG22        -4.1400    -4.0230     3.1310 hc         1 PI6       0.041367
     81 HG23        -5.1220    -3.6130     1.7400 hc         1 PI6       0.041367
     82 HD12        -0.8520    -0.6500     2.4350 hc         1 PI6       0.033367
     83 HD13        -1.9930    -0.6540     3.7740 hc         1 PI6       0.033367
     84 HD14        -0.4770    -1.5410     3.8920 hc         1 PI6       0.033367
     85 H3          -5.3400    -0.5410     1.0430 hn         1 PI6       0.340500
     86 HA21        -7.1350    -2.3780    -0.4170 h1         1 PI6       0.053200
     87 HA3         -7.5260    -1.4550     1.0160 h1         1 PI6       0.053200
     88 H14         -7.9760    -0.7840    -2.8720 h1         1 PI6       0.061200
     89 H24         -6.2950    -0.9130    -2.3770 h1         1 PI6       0.061200
     90 H89         -8.7240    -0.3980    -0.7090 hc         1 PI6       0.056700
     91 H99         -7.3890     0.6530    -0.3210 hc         1 PI6       0.056700
@<TRIPOS>BOND
     1     1     2 2   
     2     2     3 1   
     3     2     8 1   
     4     3     4 1   
     5     4     5 1   
     6     4     6 1   
     7     4     7 1   
     8     5    44 1   
     9     5    45 1   
    10     5    46 1   
    11     6    47 1   
    12     6    48 1   
    13     6    49 1   
    14     7    50 1   
    15     7    51 1   
    16     7    52 1   
    17     8     9 1   
    18     8    53 1   
    19     9    10 1   
    20     9    12 1   
    21     9    54 1   
    22    10    11 1   
    23    10    19 1   
    24    10    55 1   
    25    11    56 1   
    26    12    13 1   
    27    12    57 1   
    28    12    58 1   
    29    13    14 ar  
    30    13    15 ar  
    31    14    16 ar  
    32    14    59 1   
    33    15    17 ar  
    34    15    60 1   
    35    16    18 ar  
    36    16    61 1   
    37    17    18 ar  
    38    17    62 1   
    39    18    63 1   
    40    19    20 1   
    41    19    64 1   
    42    19    65 1   
    43    20    21 1   
    44    20    66 1   
    45    21    22 1   
    46    21    24 1   
    47    21    67 1   
    48    22    23 2   
    49    22    31 1   
    50    24    25 1   
    51    24    68 1   
    52    24    69 1   
    53    25    26 ar  
    54    25    27 ar  
    55    26    28 ar  
    56    26    70 1   
    57    27    29 ar  
    58    27    71 1   
    59    28    30 ar  
    60    28    72 1   
    61    29    30 ar  
    62    29    73 1   
    63    30    39 1   
    64    31    32 1   
    65    31    74 1   
    66    32    33 1   
    67    32    35 1   
    68    32    75 1   
    69    33    34 2   
    70    33    40 1   
    71    35    36 1   
    72    35    37 1   
    73    35    76 1   
    74    36    38 1   
    75    36    77 1   
    76    36    78 1   
    77    37    79 1   
    78    37    80 1   
    79    37    81 1   
    80    38    82 1   
    81    38    83 1   
    82    38    84 1   
    83    39    43 1   
    84    40    41 1   
    85    40    85 1   
    86    41    42 1   
    87    41    86 1   
    88    41    87 1   
    89    42    43 1   
    90    42    90 1   
    91    42    91 1   
    92    43    88 1   
    93    43    89 1   
@<TRIPOS>SUBSTRUCTURE
     1 PI6         1 TEMP              0 ****  ****    0 ROOT
