@<TRIPOS>MOLECULE
PI6
   91    93     1     0     0
SMALL
No Charge or Current Charge


@<TRIPOS>ATOM
      1 O1           5.1180    -1.7130    -0.5500 o          1 PI6      -0.549000
      2 C            5.1710    -0.5560    -0.9330 c          1 PI6       0.653100
      3 O2           6.1600     0.0260    -1.6770 os         1 PI6      -0.479100
      4 CT           7.3730    -0.6740    -2.0380 c3         1 PI6       0.225000
      5 C1           7.0310    -1.8860    -2.9430 c3         1 PI6      -0.108100
      6 C2           8.1910     0.3650    -2.8370 c3         1 PI6      -0.108100
      7 C3           8.1410    -1.0740    -0.7500 c3         1 PI6      -0.108100
      8 N            4.2290     0.3950    -0.6700 ns         1 PI6      -0.494900
      9 CA           3.0760     0.2180     0.2200 c3         1 PI6       0.134700
     10 C4           1.7860     0.7820    -0.4560 c3         1 PI6       0.157300
     11 OXT          1.8380     2.2020    -0.6290 oh         1 PI6      -0.665000
     12 CB           3.3900     0.7990     1.6290 c3         1 PI6      -0.054100
     13 CG           4.6910     0.2610     2.2200 ca         1 PI6      -0.084300
     14 CD1          5.8730     1.0270     2.1620 ca         1 PI6      -0.098500
     15 CD2          4.7260    -1.0180     2.8090 ca         1 PI6      -0.098500
     16 CE1          7.0740     0.5190     2.6840 ca         1 PI6      -0.108500
     17 CE2          5.9280    -1.5270     3.3310 ca         1 PI6      -0.108500
     18 CZ           7.1030    -0.7590     3.2680 ca         1 PI6      -0.108000
     19 CM           0.4590     0.4960     0.2960 c3         1 PI6       0.144800
     20 N1          -0.6000     1.4280    -0.1970 n7         1 PI6      -0.955400
     21 CA1         -1.8020     1.6720     0.6910 c3         1 PI6       0.132500
     22 C5          -2.7980     0.4580     0.9180 c          1 PI6       0.579100
     23 O           -3.7420     0.4990     1.6970 o          1 PI6      -0.614100
     24 CB1         -2.5360     2.9480     0.1830 c3         1 PI6      -0.016100
     25 CG1         -3.7190     2.6630    -0.7400 ca         1 PI6      -0.098300
     26 CD11        -4.9710     3.2440    -0.4580 ca         1 PI6      -0.092500
     27 CD21        -3.6050     1.7480    -1.8090 ca         1 PI6      -0.092500
     28 CE11        -6.1120     2.8420    -1.1690 ca         1 PI6      -0.127000
     29 CE21        -4.7510     1.3200    -2.4930 ca         1 PI6      -0.127000
     30 CZ1         -6.0060     1.8390    -2.1420 ca         1 PI6       0.107100
     31 N2          -2.5330    -0.6700     0.1620 ns         1 PI6      -0.493900
     32 CA2         -3.2040    -1.9950     0.2280 c3         1 PI6       0.041700
     33 C6          -4.6170    -1.9890    -0.4420 c          1 PI6       0.588100
     34 O3          -4.8770    -2.6950    -1.4080 o          1 PI6      -0.615100
     35 CB2         -3.2130    -2.6750     1.6470 c3         1 PI6      -0.066700
     36 CG11        -1.7900    -2.9160     2.2470 c3         1 PI6      -0.070400
     37 CG2         -3.9880    -4.0210     1.6170 c3         1 PI6      -0.097100
     38 CD12        -1.1480    -1.7100     2.9640 c3         1 PI6      -0.088100
     39 OH          -7.1480     1.2660    -2.6390 os         1 PI6      -0.360100
     40 N3          -5.5680    -1.1670     0.1230 ns         1 PI6      -0.498900
     41 CA3         -7.0200    -1.3540    -0.0420 c3         1 PI6       0.103000
     42 C7          -7.7360    -0.2150    -0.7960 c3         1 PI6      -0.129400
     43 C8          -7.4030    -0.1160    -2.3110 c3         1 PI6       0.158600
     44 H11          6.3370    -1.5930    -3.7400 hc         1 PI6       0.048700
     45 H12          7.9400    -2.2790    -3.4140 hc         1 PI6       0.048700
     46 H13          6.5810    -2.7080    -2.3760 hc         1 PI6       0.048700
     47 H21          8.4010     1.2490    -2.2240 hc         1 PI6       0.048700
     48 H22          9.1480    -0.0590    -3.1620 hc         1 PI6       0.048700
     49 H23          7.6420     0.6900    -3.7290 hc         1 PI6       0.048700
     50 H31          7.6460    -1.8900    -0.2130 hc         1 PI6       0.048700
     51 H32          9.1530    -1.4140    -0.9990 hc         1 PI6       0.048700
     52 H33          8.2300    -0.2180    -0.0700 hc         1 PI6       0.048700
     53 H            4.3990     1.3100    -1.0640 hn         1 PI6       0.331500
     54 HA           2.9140    -0.8610     0.3460 h1         1 PI6       0.082700
     55 HC           1.6970     0.3090    -1.4440 h1         1 PI6       0.043700
     56 HOR          0.8790     2.4270    -0.4870 ho         1 PI6       0.467000
     57 HB2          3.4350     1.8930     1.5670 hc         1 PI6       0.056200
     58 HB3          2.5680     0.5690     2.3150 hc         1 PI6       0.056200
     59 HD1          5.8620     2.0140     1.7040 ha         1 PI6       0.109000
     60 HD2          3.8220    -1.6220     2.8550 ha         1 PI6       0.109000
     61 HE1          7.9840     1.1130     2.6330 ha         1 PI6       0.111000
     62 HE2          5.9490    -2.5160     3.7810 ha         1 PI6       0.111000
     63 HZ           8.0330    -1.1530     3.6700 ha         1 PI6       0.111000
     64 HM2          0.1810    -0.5570     0.1590 h1         1 PI6       0.046700
     65 HM3          0.6150     0.6620     1.3690 h1         1 PI6       0.046700
     66 H1          -0.8910     1.1830    -1.1550 hn         1 PI6       0.443000
     67 HA1         -1.4290     1.9110     1.6970 h1         1 PI6       0.082700
     68 HB21        -2.8900     3.4910     1.0680 hc         1 PI6       0.066700
     69 HB31        -1.8230     3.6230    -0.3060 hc         1 PI6       0.066700
     70 HD11        -5.0750     3.9620     0.3530 ha         1 PI6       0.109000
     71 HD21        -2.6460     1.3110    -2.0670 ha         1 PI6       0.109000
     72 HE11        -7.0880     3.2400    -0.9020 ha         1 PI6       0.126000
     73 HE21        -4.6690     0.5530    -3.2580 ha         1 PI6       0.126000
     74 H2          -1.7250    -0.5890    -0.4420 hn         1 PI6       0.313500
     75 HA2         -2.6080    -2.6550    -0.4150 h1         1 PI6       0.074700
     76 HB          -3.7620    -2.0270     2.3410 hc         1 PI6       0.072700
     77 HG12        -1.8440    -3.7240     2.9870 hc         1 PI6       0.039200
     78 HG13        -1.1150    -3.2750     1.4600 hc         1 PI6       0.039200
     79 HG21        -3.5350    -4.7170     0.9000 hc         1 PI6       0.041367
     80 HG22        -3.9840    -4.4980     2.6040 hc         1 PI6       0.041367
     81 HG23        -5.0400    -3.8770     1.3410 hc         1 PI6       0.041367
     82 HD12        -0.8990    -0.9100     2.2660 hc         1 PI6       0.033367
     83 HD13        -1.8230    -1.3080     3.7290 hc         1 PI6       0.033367
     84 HD14        -0.2200    -2.0180     3.4590 hc         1 PI6       0.033367
     85 H3          -5.2340    -0.5590     0.8680 hn         1 PI6       0.340500
     86 HA21        -7.2180    -2.3070    -0.5510 h1         1 PI6       0.053200
     87 HA3         -7.4560    -1.4320     0.9620 h1         1 PI6       0.053200
     88 H14         -8.2520    -0.4980    -2.8940 h1         1 PI6       0.061200
     89 H24         -6.5340    -0.7400    -2.5530 h1         1 PI6       0.061200
     90 H89         -8.8170    -0.3730    -0.7010 hc         1 PI6       0.056700
     91 H99         -7.5300     0.7240    -0.2730 hc         1 PI6       0.056700
@<TRIPOS>BOND
     1     1     2 2   
     2     2     3 1   
     3     2     8 1   
     4     3     4 1   
     5     4     5 1   
     6     4     6 1   
     7     4     7 1   
     8     5    44 1   
     9     5    45 1   
    10     5    46 1   
    11     6    47 1   
    12     6    48 1   
    13     6    49 1   
    14     7    50 1   
    15     7    51 1   
    16     7    52 1   
    17     8     9 1   
    18     8    53 1   
    19     9    10 1   
    20     9    12 1   
    21     9    54 1   
    22    10    11 1   
    23    10    19 1   
    24    10    55 1   
    25    11    56 1   
    26    12    13 1   
    27    12    57 1   
    28    12    58 1   
    29    13    14 ar  
    30    13    15 ar  
    31    14    16 ar  
    32    14    59 1   
    33    15    17 ar  
    34    15    60 1   
    35    16    18 ar  
    36    16    61 1   
    37    17    18 ar  
    38    17    62 1   
    39    18    63 1   
    40    19    20 1   
    41    19    64 1   
    42    19    65 1   
    43    20    21 1   
    44    20    66 1   
    45    21    22 1   
    46    21    24 1   
    47    21    67 1   
    48    22    23 2   
    49    22    31 1   
    50    24    25 1   
    51    24    68 1   
    52    24    69 1   
    53    25    26 ar  
    54    25    27 ar  
    55    26    28 ar  
    56    26    70 1   
    57    27    29 ar  
    58    27    71 1   
    59    28    30 ar  
    60    28    72 1   
    61    29    30 ar  
    62    29    73 1   
    63    30    39 1   
    64    31    32 1   
    65    31    74 1   
    66    32    33 1   
    67    32    35 1   
    68    32    75 1   
    69    33    34 2   
    70    33    40 1   
    71    35    36 1   
    72    35    37 1   
    73    35    76 1   
    74    36    38 1   
    75    36    77 1   
    76    36    78 1   
    77    37    79 1   
    78    37    80 1   
    79    37    81 1   
    80    38    82 1   
    81    38    83 1   
    82    38    84 1   
    83    39    43 1   
    84    40    41 1   
    85    40    85 1   
    86    41    42 1   
    87    41    86 1   
    88    41    87 1   
    89    42    43 1   
    90    42    90 1   
    91    42    91 1   
    92    43    88 1   
    93    43    89 1   
@<TRIPOS>SUBSTRUCTURE
     1 PI6         1 TEMP              0 ****  ****    0 ROOT
