@<TRIPOS>MOLECULE
PI7
  101   103     1     0     0
SMALL
No Charge or Current Charge


@<TRIPOS>ATOM
      1 C1          -0.3810    -0.6930    -9.8560 c3         1 PI7      -0.075100
      2 C2           1.0390    -0.9850    -9.3240 c3         1 PI7      -0.164400
      3 C3           0.9980    -1.6060    -7.9250 c          1 PI7       0.601100
      4 O4           0.6940    -2.7740    -7.7320 o          1 PI7      -0.611100
      5 N5           1.3530    -0.7570    -6.9030 ns         1 PI7      -0.495900
      6 C6           1.3860    -1.1140    -5.4670 c3         1 PI7       0.034700
      7 C7           1.1770     0.1730    -4.6150 c          1 PI7       0.590100
      8 O8           1.4290     1.2970    -5.0360 o          1 PI7      -0.612100
      9 C9           2.6960    -1.8910    -5.1170 c3         1 PI7      -0.064700
     10 C10          3.9780    -1.0420    -5.3080 c3         1 PI7      -0.089600
     11 C11          2.6590    -2.5300    -3.7080 c3         1 PI7      -0.089600
     12 N12          0.6480    -0.0360    -3.3600 ns         1 PI7      -0.488900
     13 C13          0.2150     1.0210    -2.4350 c3         1 PI7       0.114700
     14 C14         -1.3350     1.1590    -2.4740 c3         1 PI7      -0.042100
     15 C15         -1.8940     1.2280    -3.8940 ca         1 PI7      -0.122300
     16 C16         -2.4840     0.0920    -4.4840 ca         1 PI7      -0.063000
     17 C17         -1.8010     2.4220    -4.6350 ca         1 PI7      -0.063000
     18 C18         -2.9740     0.1500    -5.8010 ca         1 PI7      -0.171000
     19 C19         -2.2920     2.4770    -5.9510 ca         1 PI7      -0.171000
     20 C20         -2.8780     1.3440    -6.5330 ca         1 PI7       0.132100
     21 C21          0.8210     0.7660    -1.0200 c3         1 PI7       0.158300
     22 C22          0.5500     1.8740     0.0320 c3         1 PI7       0.116800
     23 O23          0.3460    -0.4570    -0.4490 oh         1 PI7      -0.668000
     24 O24         -3.3540     1.4090    -7.8080 oh         1 PI7      -0.539100
     25 N25          0.8110     1.3400     1.4030 n7         1 PI7      -0.894400
     26 C26          0.5320     2.2850     2.5500 c3         1 PI7       0.088500
     27 C27         -0.9890     2.5820     2.7250 c3         1 PI7      -0.014100
     28 C28         -1.7490     1.4410     3.4000 ca         1 PI7      -0.132300
     29 C29         -2.1730     1.5730     4.7360 ca         1 PI7      -0.061500
     30 C30         -2.7680     0.4900     5.4050 ca         1 PI7      -0.173500
     31 C31         -1.9650     0.2240     2.7260 ca         1 PI7      -0.061500
     32 C32         -2.5440    -0.8630     3.4010 ca         1 PI7      -0.173500
     33 C33         -2.9260    -0.7480     4.7470 ca         1 PI7       0.147100
     34 O34         -3.4590    -1.8670     5.3560 os         1 PI7      -0.353100
     35 C35         -3.6920    -1.9830     6.7750 c3         1 PI7       0.171600
     36 C36          1.1240     1.7850     3.9140 c          1 PI7       0.604100
     37 O37          1.6220     2.5340     4.7430 o          1 PI7      -0.577100
     38 N38          1.0730     0.4110     4.0570 ns         1 PI7      -0.493900
     39 C39          1.4590    -0.3990     5.2350 c3         1 PI7       0.059700
     40 C40          0.4090    -0.2220     6.3800 c          1 PI7       0.585100
     41 O41          0.2760     0.8110     7.0230 o          1 PI7      -0.577100
     42 C42          2.9340    -0.1910     5.7130 c3         1 PI7      -0.067700
     43 C43          3.9520    -0.3130     4.5370 c3         1 PI7      -0.066400
     44 C44          3.2830    -1.1580     6.8770 c3         1 PI7      -0.092100
     45 C45          5.4190    -0.0030     4.9080 c3         1 PI7      -0.089100
     46 N46         -0.3380    -1.3510     6.6640 ns         1 PI7      -0.504900
     47 C47         -1.3040    -1.4550     7.7600 c3         1 PI7       0.103000
     48 C48         -2.4170    -2.4950     7.4960 c3         1 PI7      -0.123400
     49 H11         -0.9040     0.0090    -9.1950 hc         1 PI7       0.039367
     50 H12A        -0.3320    -0.2500   -10.8580 hc         1 PI7       0.039367
     51 H13A        -0.9710    -1.6150    -9.9170 hc         1 PI7       0.039367
     52 H21A         1.5960    -0.0410    -9.3020 hc         1 PI7       0.062700
     53 H22          1.5260    -1.6880   -10.0100 hc         1 PI7       0.062700
     54 H5           1.5730     0.2000    -7.1590 hn         1 PI7       0.330500
     55 H6           0.5270    -1.7670    -5.2650 h1         1 PI7       0.084700
     56 H9           2.7650    -2.7280    -5.8230 hc         1 PI7       0.061700
     57 H101         4.8720    -1.6510    -5.1270 hc         1 PI7       0.037700
     58 H102         4.0430    -0.6500    -6.3300 hc         1 PI7       0.037700
     59 H103         3.9990    -0.1950    -4.6120 hc         1 PI7       0.037700
     60 H111         2.7080    -1.7680    -2.9210 hc         1 PI7       0.037700
     61 H112         1.7440    -3.1180    -3.5690 hc         1 PI7       0.037700
     62 H113         3.5140    -3.2040    -3.5720 hc         1 PI7       0.037700
     63 H12          0.4890    -0.9950    -3.0780 hn         1 PI7       0.325500
     64 H13          0.6320     1.9740    -2.7880 h1         1 PI7       0.084700
     65 H141        -1.7860     0.3130    -1.9400 hc         1 PI7       0.057200
     66 H142        -1.6360     2.0580    -1.9250 hc         1 PI7       0.057200
     67 H16         -2.5570    -0.8390    -3.9250 ha         1 PI7       0.112500
     68 H17         -1.3410     3.3040    -4.1940 ha         1 PI7       0.112500
     69 H18         -3.4240    -0.7350    -6.2440 ha         1 PI7       0.125000
     70 H19         -2.2160     3.4010    -6.5200 ha         1 PI7       0.125000
     71 H21          1.9110     0.6980    -1.1370 h1         1 PI7       0.039700
     72 H221        -0.4920     2.2000    -0.0570 h1         1 PI7       0.051700
     73 H222         1.1870     2.7430    -0.1840 h1         1 PI7       0.051700
     74 H23          0.3060    -0.2050     0.5080 ho         1 PI7       0.464000
     75 H24         -3.7560     0.5440    -8.0340 ho         1 PI7       0.464000
     76 H25          1.8170     1.1100     1.4430 hn         1 PI7       0.415000
     77 H26          1.0330     3.2410     2.3440 h1         1 PI7       0.056700
     78 H271        -1.0820     3.4930     3.3290 hc         1 PI7       0.058200
     79 H272        -1.4510     2.8310     1.7640 hc         1 PI7       0.058200
     80 H29         -2.0170     2.5070     5.2710 ha         1 PI7       0.121000
     81 H30         -3.0750     0.6310     6.4350 ha         1 PI7       0.123500
     82 H31         -1.6560     0.1120     1.6900 ha         1 PI7       0.121000
     83 H32         -2.6830    -1.8080     2.8830 ha         1 PI7       0.123500
     84 H351        -4.0640    -1.0550     7.2240 h1         1 PI7       0.054200
     85 H352        -4.4750    -2.7370     6.9350 h1         1 PI7       0.054200
     86 H38          0.6420    -0.0630     3.2710 hn         1 PI7       0.331500
     87 H39          1.3850    -1.4440     4.9090 h1         1 PI7       0.042700
     88 H42          3.0140     0.8280     6.1130 hc         1 PI7       0.097700
     89 H431         3.6700     0.3770     3.7340 hc         1 PI7       0.033700
     90 H432         3.8980    -1.3230     4.1110 hc         1 PI7       0.033700
     91 H441         3.2650    -2.2000     6.5370 hc         1 PI7       0.036367
     92 H442         4.2780    -0.9470     7.2850 hc         1 PI7       0.036367
     93 H443         2.5740    -1.0570     7.7070 hc         1 PI7       0.036367
     94 H451         6.0410     0.0150     4.0050 hc         1 PI7       0.034700
     95 H452         5.4980     0.9770     5.3950 hc         1 PI7       0.034700
     96 H453         5.8310    -0.7640     5.5810 hc         1 PI7       0.034700
     97 H46         -0.1780    -2.1660     6.0840 hn         1 PI7       0.309500
     98 H471        -1.7500    -0.4750     7.9730 h1         1 PI7       0.052700
     99 H472        -0.7450    -1.7620     8.6540 h1         1 PI7       0.052700
    100 H481        -2.7410    -2.8680     8.4750 hc         1 PI7       0.054700
    101 H482        -2.0080    -3.3650     6.9670 hc         1 PI7       0.054700
@<TRIPOS>BOND
     1     1     2 1   
     2     1    49 1   
     3     1    50 1   
     4     1    51 1   
     5     2     3 1   
     6     2    52 1   
     7     2    53 1   
     8     3     4 2   
     9     3     5 1   
    10     5     6 1   
    11     5    54 1   
    12     6     7 1   
    13     6     9 1   
    14     6    55 1   
    15     7     8 2   
    16     7    12 1   
    17     9    10 1   
    18     9    11 1   
    19     9    56 1   
    20    10    57 1   
    21    10    58 1   
    22    10    59 1   
    23    11    60 1   
    24    11    61 1   
    25    11    62 1   
    26    12    13 1   
    27    12    63 1   
    28    13    14 1   
    29    13    21 1   
    30    13    64 1   
    31    14    15 1   
    32    14    65 1   
    33    14    66 1   
    34    15    16 ar  
    35    15    17 ar  
    36    16    18 ar  
    37    16    67 1   
    38    17    19 ar  
    39    17    68 1   
    40    18    20 ar  
    41    18    69 1   
    42    19    20 ar  
    43    19    70 1   
    44    20    24 1   
    45    21    22 1   
    46    21    23 1   
    47    21    71 1   
    48    22    25 1   
    49    22    72 1   
    50    22    73 1   
    51    23    74 1   
    52    24    75 1   
    53    25    26 1   
    54    25    76 1   
    55    26    27 1   
    56    26    36 1   
    57    26    77 1   
    58    27    28 1   
    59    27    78 1   
    60    27    79 1   
    61    28    29 ar  
    62    28    31 ar  
    63    29    30 ar  
    64    29    80 1   
    65    30    33 ar  
    66    30    81 1   
    67    31    32 ar  
    68    31    82 1   
    69    32    33 ar  
    70    32    83 1   
    71    33    34 1   
    72    34    35 1   
    73    35    48 1   
    74    35    84 1   
    75    35    85 1   
    76    36    37 2   
    77    36    38 1   
    78    38    39 1   
    79    38    86 1   
    80    39    40 1   
    81    39    42 1   
    82    39    87 1   
    83    40    41 2   
    84    40    46 1   
    85    42    43 1   
    86    42    44 1   
    87    42    88 1   
    88    43    45 1   
    89    43    89 1   
    90    43    90 1   
    91    44    91 1   
    92    44    92 1   
    93    44    93 1   
    94    45    94 1   
    95    45    95 1   
    96    45    96 1   
    97    46    47 1   
    98    46    97 1   
    99    47    48 1   
   100    47    98 1   
   101    47    99 1   
   102    48   100 1   
   103    48   101 1   
@<TRIPOS>SUBSTRUCTURE
     1 PI7         1 TEMP              0 ****  ****    0 ROOT
