@<TRIPOS>MOLECULE
PI7
  101   103     1     0     0
SMALL
bcc


@<TRIPOS>ATOM
      1 C1          -1.0140    -1.3270    -9.5290 c3         1 PI7      -0.075100
      2 C2           0.0600    -0.6990    -8.6610 c3         1 PI7      -0.164400
      3 C3           0.2830    -1.4270    -7.3510 c          1 PI7       0.668100
      4 O4          -0.3190    -2.4470    -7.0510 o          1 PI7      -0.611100
      5 N5           1.2080    -0.8550    -6.5540 ns         1 PI7      -0.562900
      6 C6           1.4360    -1.2480    -5.1850 c3         1 PI7       0.034700
      7 C7           1.2750     0.0010    -4.3210 c          1 PI7       0.657100
      8 O8           1.6770     1.0870    -4.7090 o          1 PI7      -0.612100
      9 C9           2.8020    -1.9390    -4.9950 c3         1 PI7      -0.064700
     10 C10          3.9890    -1.0500    -5.3500 c3         1 PI7      -0.089600
     11 C11          2.9540    -2.5150    -3.5910 c3         1 PI7      -0.089600
     12 N12          0.6840    -0.1950    -3.1310 ns         1 PI7      -0.555900
     13 C13          0.2640     0.8840    -2.2630 c3         1 PI7       0.114700
     14 C14         -1.2480     1.1330    -2.4230 c3         1 PI7      -0.042100
     15 C15         -1.6450     1.2900    -3.8630 ca         1 PI7      -0.122300
     16 C16         -2.1110     0.2060    -4.5990 ca         1 PI7      -0.081000
     17 C17         -1.5030     2.5060    -4.5260 ca         1 PI7      -0.081000
     18 C18         -2.4220     0.3200    -5.9470 ca         1 PI7      -0.189000
     19 C19         -1.8140     2.6420    -5.8690 ca         1 PI7      -0.189000
     20 C20         -2.2740     1.5430    -6.5900 ca         1 PI7       0.132100
     21 C21          0.6880     0.5830    -0.8280 c3         1 PI7       0.135100
     22 C22          0.4080     1.7420     0.1200 c3         1 PI7       0.116800
     23 O23          0.0320    -0.5860    -0.3940 oh         1 PI7      -0.605800
     24 O24         -2.5560     1.7220    -7.9020 oh         1 PI7      -0.500100
     25 N25          0.8080     1.3430     1.4590 n7         1 PI7      -0.839200
     26 C26          0.5770     2.3210     2.5110 c3         1 PI7       0.088500
     27 C27         -0.9130     2.6890     2.6840 c3         1 PI7      -0.014100
     28 C28         -1.7300     1.5630     3.2470 ca         1 PI7      -0.132300
     29 C29         -2.0460     1.5480     4.5990 ca         1 PI7      -0.079500
     30 C30         -2.6280     0.4470     5.2080 ca         1 PI7      -0.191500
     31 C31         -2.0830     0.4450     2.4920 ca         1 PI7      -0.079500
     32 C32         -2.6490    -0.6690     3.0850 ca         1 PI7      -0.191500
     33 C33         -2.8890    -0.6950     4.4600 ca         1 PI7       0.147100
     34 O34         -3.3780    -1.8530     4.9480 os         1 PI7      -0.329900
     35 C35         -3.5730    -2.0480     6.3400 c3         1 PI7       0.148400
     36 C36          1.1040     1.7960     3.8530 c          1 PI7       0.671100
     37 O37          1.4740     2.5760     4.7160 o          1 PI7      -0.577100
     38 N38          1.0900     0.4590     3.9570 ns         1 PI7      -0.560900
     39 C39          1.4780    -0.3720     5.0800 c3         1 PI7       0.059700
     40 C40          0.4200    -0.3370     6.1910 c          1 PI7       0.652100
     41 O41          0.2830     0.6360     6.9150 o          1 PI7      -0.577100
     42 C42          2.8730    -0.0780     5.6540 c3         1 PI7      -0.067700
     43 C43          3.9330    -0.0950     4.5500 c3         1 PI7      -0.066400
     44 C44          3.1990    -1.1050     6.7380 c3         1 PI7      -0.092100
     45 C45          5.3060     0.3770     5.0120 c3         1 PI7      -0.089100
     46 N46         -0.3070    -1.4600     6.3150 ns         1 PI7      -0.571900
     47 C47         -1.2090    -1.7080     7.4190 c3         1 PI7       0.103000
     48 C48         -2.3740    -2.6310     7.0750 c3         1 PI7      -0.123400
     49 H11         -1.9700    -1.3910    -9.0070 hc         1 PI7       0.039367
     50 H12A        -1.1670    -0.7320   -10.4280 hc         1 PI7       0.039367
     51 H13A        -0.7450    -2.3360    -9.8400 hc         1 PI7       0.039367
     52 H21A        -0.1960     0.3410    -8.4370 hc         1 PI7       0.062700
     53 H22          1.0100    -0.6540    -9.2030 hc         1 PI7       0.062700
     54 H5           1.5910     0.0350    -6.8340 hn         1 PI7       0.330500
     55 H6           0.6620    -1.9740    -4.9280 h1         1 PI7       0.084700
     56 H9           2.7870    -2.7780    -5.7000 hc         1 PI7       0.061700
     57 H101         4.9070    -1.6390    -5.3450 hc         1 PI7       0.037700
     58 H102         3.8930    -0.6110    -6.3440 hc         1 PI7       0.037700
     59 H103         4.1170    -0.2380    -4.6330 hc         1 PI7       0.037700
     60 H111         3.0220    -1.7320    -2.8330 hc         1 PI7       0.037700
     61 H112         2.1190    -3.1680    -3.3290 hc         1 PI7       0.037700
     62 H113         3.8660    -3.1100    -3.5260 hc         1 PI7       0.037700
     63 H12          0.3410    -1.1170    -2.9130 hn         1 PI7       0.325500
     64 H13          0.8020     1.7780    -2.5810 h1         1 PI7       0.084700
     65 H141        -1.8010     0.3040    -1.9750 hc         1 PI7       0.057200
     66 H142        -1.5220     2.0320    -1.8650 hc         1 PI7       0.057200
     67 H16         -2.2390    -0.7550    -4.1150 ha         1 PI7       0.130500
     68 H17         -1.1400     3.3720    -3.9850 ha         1 PI7       0.130500
     69 H18         -2.7810    -0.5500    -6.4870 ha         1 PI7       0.143000
     70 H19         -1.7010     3.6000    -6.3620 ha         1 PI7       0.143000
     71 H21          1.7790     0.4220    -0.8480 h1         1 PI7       0.039700
     72 H221        -0.6600     1.9600     0.1150 h1         1 PI7       0.051700
     73 H222         0.9240     2.6450    -0.2340 h1         1 PI7       0.051700
     74 H23          0.1360    -0.6120     0.5670 ho         1 PI7       0.425000
     75 H24         -2.9050     0.9090    -8.2840 ho         1 PI7       0.425000
     76 H25          1.8020     1.1370     1.4380 hn         1 PI7       0.359800
     77 H26          1.1150     3.2580     2.3120 h1         1 PI7       0.056700
     78 H271        -0.9500     3.5430     3.3630 hc         1 PI7       0.058200
     79 H272        -1.3100     3.0470     1.7330 hc         1 PI7       0.058200
     80 H29         -1.7980     2.4060     5.2120 ha         1 PI7       0.139000
     81 H30         -2.8230     0.4930     6.2700 ha         1 PI7       0.141500
     82 H31         -1.8990     0.4230     1.4250 ha         1 PI7       0.139000
     83 H32         -2.8910    -1.5400     2.4870 ha         1 PI7       0.141500
     84 H351        -3.9250    -1.1360     6.8300 h1         1 PI7       0.054200
     85 H352        -4.3880    -2.7690     6.4050 h1         1 PI7       0.054200
     86 H38          0.7160    -0.0240     3.1550 hn         1 PI7       0.331500
     87 H39          1.5150    -1.3850     4.6650 h1         1 PI7       0.042700
     88 H42          2.8550     0.9150     6.1070 hc         1 PI7       0.097700
     89 H431         3.6140     0.5390     3.7200 hc         1 PI7       0.033700
     90 H432         4.0090    -1.1090     4.1430 hc         1 PI7       0.033700
     91 H441         3.2140    -2.1170     6.3250 hc         1 PI7       0.036367
     92 H442         4.1790    -0.9140     7.1730 hc         1 PI7       0.036367
     93 H443         2.4830    -1.0910     7.5610 hc         1 PI7       0.036367
     94 H451         6.0110     0.3880     4.1810 hc         1 PI7       0.034700
     95 H452         5.2560     1.3900     5.4150 hc         1 PI7       0.034700
     96 H453         5.7280    -0.2650     5.7860 hc         1 PI7       0.034700
     97 H46         -0.0860    -2.2410     5.7170 hn         1 PI7       0.309500
     98 H471        -1.5800    -0.7530     7.7890 h1         1 PI7       0.052700
     99 H472        -0.6490    -2.1620     8.2430 h1         1 PI7       0.052700
    100 H481        -2.7670    -2.9980     8.0270 hc         1 PI7       0.054700
    101 H482        -2.0160    -3.5190     6.5450 hc         1 PI7       0.054700
@<TRIPOS>BOND
     1     1     2 1   
     2     1    49 1   
     3     1    50 1   
     4     1    51 1   
     5     2     3 1   
     6     2    52 1   
     7     2    53 1   
     8     3     4 2   
     9     3     5 1   
    10     5     6 1   
    11     5    54 1   
    12     6     7 1   
    13     6     9 1   
    14     6    55 1   
    15     7     8 2   
    16     7    12 1   
    17     9    10 1   
    18     9    11 1   
    19     9    56 1   
    20    10    57 1   
    21    10    58 1   
    22    10    59 1   
    23    11    60 1   
    24    11    61 1   
    25    11    62 1   
    26    12    13 1   
    27    12    63 1   
    28    13    14 1   
    29    13    21 1   
    30    13    64 1   
    31    14    15 1   
    32    14    65 1   
    33    14    66 1   
    34    15    16 ar  
    35    15    17 ar  
    36    16    18 ar  
    37    16    67 1   
    38    17    19 ar  
    39    17    68 1   
    40    18    20 ar  
    41    18    69 1   
    42    19    20 ar  
    43    19    70 1   
    44    20    24 1   
    45    21    22 1   
    46    21    23 1   
    47    21    71 1   
    48    22    25 1   
    49    22    72 1   
    50    22    73 1   
    51    23    74 1   
    52    24    75 1   
    53    25    26 1   
    54    25    76 1   
    55    26    27 1   
    56    26    36 1   
    57    26    77 1   
    58    27    28 1   
    59    27    78 1   
    60    27    79 1   
    61    28    29 ar  
    62    28    31 ar  
    63    29    30 ar  
    64    29    80 1   
    65    30    33 ar  
    66    30    81 1   
    67    31    32 ar  
    68    31    82 1   
    69    32    33 ar  
    70    32    83 1   
    71    33    34 1   
    72    34    35 1   
    73    35    48 1   
    74    35    84 1   
    75    35    85 1   
    76    36    37 2   
    77    36    38 1   
    78    38    39 1   
    79    38    86 1   
    80    39    40 1   
    81    39    42 1   
    82    39    87 1   
    83    40    41 2   
    84    40    46 1   
    85    42    43 1   
    86    42    44 1   
    87    42    88 1   
    88    43    45 1   
    89    43    89 1   
    90    43    90 1   
    91    44    91 1   
    92    44    92 1   
    93    44    93 1   
    94    45    94 1   
    95    45    95 1   
    96    45    96 1   
    97    46    47 1   
    98    46    97 1   
    99    47    48 1   
   100    47    98 1   
   101    47    99 1   
   102    48   100 1   
   103    48   101 1   
@<TRIPOS>SUBSTRUCTURE
     1 PI7         1 TEMP              0 ****  ****    0 ROOT
