@<TRIPOS>MOLECULE
PI8
  105   109     1     0     0
SMALL
No Charge or Current Charge


@<TRIPOS>ATOM
      1 N1           0.5530    -0.1020    -5.0550 ns         1 PI8      -0.493900
      2 C2           1.4360    -0.2140    -6.2280 c5         1 PI8       0.119000
      3 C1           0.4960    -0.2490    -7.5230 c5         1 PI8       0.156300
      4 O1          -0.7790    -0.8720    -7.2980 oh         1 PI8      -0.659000
      5 C9           1.3240    -1.0910    -8.5720 c5         1 PI8      -0.033100
      6 C3           2.1500    -1.5340    -6.3660 ca         1 PI8      -0.106300
      7 C8           2.0950    -2.0120    -7.6600 ca         1 PI8      -0.070300
      8 C4           2.8360    -2.2380    -5.3630 ca         1 PI8      -0.088000
      9 C7           2.7190    -3.2200    -8.0100 ca         1 PI8      -0.094000
     10 C5           3.4650    -3.4540    -5.6940 ca         1 PI8      -0.116000
     11 C6           3.4050    -3.9450    -7.0160 ca         1 PI8      -0.105000
     12 C11         -0.7190     1.1680    -3.3730 c3         1 PI8      -0.125700
     13 C12         -2.0190     1.9200    -3.7650 c3         1 PI8      -0.024100
     14 C13         -2.6450     1.3720    -5.0440 ca         1 PI8      -0.091300
     15 C18         -3.3640     0.1620    -5.0180 ca         1 PI8      -0.108000
     16 C14         -2.5070     2.0690    -6.2600 ca         1 PI8      -0.108000
     17 C17         -3.9460    -0.3420    -6.1940 ca         1 PI8      -0.117000
     18 C15         -3.0880     1.5650    -7.4360 ca         1 PI8      -0.117000
     19 C16         -3.8100     0.3600    -7.4030 ca         1 PI8      -0.115000
     20 C10          0.2630     1.1540    -4.5630 c          1 PI8       0.601100
     21 O2           0.7470     2.1780    -5.0290 o          1 PI8      -0.607100
     22 C19         -0.0100     1.7280    -2.1010 c3         1 PI8      -0.098400
     23 O3          -1.8270     2.4770    -0.6210 oh         1 PI8      -0.648000
     24 C20         -0.7640     1.5350    -0.7590 c3         1 PI8       0.168300
     25 C21          0.1390     1.7600     0.4840 c3         1 PI8       0.159800
     26 N2          -0.7030     2.0670     1.6790 n7         1 PI8      -0.945400
     27 C22          0.0010     2.6990     2.8540 c3         1 PI8       0.142500
     28 C23         -1.0430     3.1540     3.9060 c3         1 PI8      -0.007100
     29 C24         -1.6640     2.0040     4.6990 ca         1 PI8      -0.099300
     30 C25         -2.7230     1.2470     4.1630 ca         1 PI8      -0.083000
     31 C26         -3.2570     0.1660     4.8880 ca         1 PI8      -0.141500
     32 C29         -1.1710     1.6850     5.9780 ca         1 PI8      -0.083000
     33 C28         -1.7140     0.6140     6.7090 ca         1 PI8      -0.141500
     34 C27         -2.7600    -0.1610     6.1600 ca         1 PI8       0.107100
     35 O6          -3.3010    -1.2690     6.7890 os         1 PI8      -0.364100
     36 C30          1.1520     1.8600     3.5280 c          1 PI8       0.565100
     37 O4           2.0190     2.3860     4.2120 o          1 PI8      -0.565100
     38 N3           1.1300     0.4970     3.2630 ns         1 PI8      -0.525900
     39 C31          2.0880    -0.5390     3.7370 c3         1 PI8       0.044700
     40 C32          3.5960    -0.2030     3.4710 c3         1 PI8      -0.060700
     41 C33          4.5210    -1.3710     3.9110 c3         1 PI8      -0.090100
     42 C34          3.8460     0.1990     1.9840 c3         1 PI8      -0.068400
     43 C35          5.2810     0.6700     1.6650 c3         1 PI8      -0.088100
     44 C36          1.7840    -0.9160     5.2230 c          1 PI8       0.602100
     45 O5           1.6360    -0.0910     6.1160 o          1 PI8      -0.580100
     46 N4           1.6690    -2.2730     5.4670 ns         1 PI8      -0.505900
     47 C37          1.1830    -2.8420     6.7260 c3         1 PI8       0.101000
     48 C38         -0.3570    -2.7960     6.7900 c3         1 PI8      -0.103400
     49 C39         -0.9270    -3.0640     8.2000 c3         1 PI8      -0.070400
     50 C40         -2.4740    -3.0040     8.3040 c3         1 PI8      -0.107400
     51 C41         -3.1100    -1.5940     8.1850 c3         1 PI8       0.163600
     52 HN11         0.1040    -0.8960    -4.6180 hn         1 PI8       0.319500
     53 H21          2.1700     0.6010    -6.2970 h1         1 PI8       0.096700
     54 H11          0.3310     0.7710    -7.8980 h1         1 PI8       0.048700
     55 HO11        -1.3240    -0.2300    -6.7910 ho         1 PI8       0.451000
     56 H91          0.6830    -1.6230    -9.2840 hc         1 PI8       0.066200
     57 H92          1.9990    -0.4510    -9.1520 hc         1 PI8       0.066200
     58 H41          2.8840    -1.8500    -4.3470 ha         1 PI8       0.113000
     59 H71          2.6720    -3.5910    -9.0320 ha         1 PI8       0.116000
     60 H51          3.9990    -4.0150    -4.9310 ha         1 PI8       0.111000
     61 H61          3.8930    -4.8840    -7.2690 ha         1 PI8       0.113000
     62 H111        -0.9960     0.1290    -3.1580 hc         1 PI8       0.047700
     63 H121        -2.7510     1.8390    -2.9530 hc         1 PI8       0.071200
     64 H122        -1.8020     2.9900    -3.8720 hc         1 PI8       0.071200
     65 H181        -3.4760    -0.3870    -4.0850 ha         1 PI8       0.118500
     66 H141        -1.9510     3.0040    -6.2960 ha         1 PI8       0.118500
     67 H171        -4.5030    -1.2760    -6.1670 ha         1 PI8       0.116500
     68 H151        -2.9800     2.1080    -8.3730 ha         1 PI8       0.116500
     69 H161        -4.2610    -0.0300    -8.3130 ha         1 PI8       0.118000
     70 H191         0.2220     2.7910    -2.2420 hc         1 PI8       0.057700
     71 H192         0.9570     1.2170    -2.0110 hc         1 PI8       0.057700
     72 H201        -1.1590     0.5110    -0.7090 h1         1 PI8       0.060700
     73 H211         0.8070     2.6070     0.2770 h1         1 PI8       0.029200
     74 H212         0.7690     0.8750     0.6450 h1         1 PI8       0.029200
     75 HN21        -1.2050     1.2220     1.9870 hn         1 PI8       0.452000
     76 H221         0.4950     3.6120     2.4960 h1         1 PI8       0.063700
     77 H231        -0.5550     3.8560     4.5930 hc         1 PI8       0.059700
     78 H232        -1.8270     3.7320     3.4040 hc         1 PI8       0.059700
     79 H251        -3.1290     1.4880     3.1830 ha         1 PI8       0.125000
     80 H261        -4.0610    -0.4260     4.4580 ha         1 PI8       0.121500
     81 H291        -0.3470     2.2550     6.4030 ha         1 PI8       0.125000
     82 H281        -1.2760     0.3830     7.6730 ha         1 PI8       0.121500
     83 HN31         0.3760     0.1910     2.6630 hn         1 PI8       0.311500
     84 H311         1.8630    -1.4370     3.1470 h1         1 PI8       0.052700
     85 H321         3.8650     0.6560     4.0970 hc         1 PI8       0.091700
     86 H331         4.3230    -2.2710     3.3170 hc         1 PI8       0.038367
     87 H332         5.5780    -1.1070     3.7950 hc         1 PI8       0.038367
     88 H333         4.3750    -1.6180     4.9690 hc         1 PI8       0.038367
     89 H341         3.1720     1.0170     1.7050 hc         1 PI8       0.030700
     90 H342         3.5940    -0.6450     1.3300 hc         1 PI8       0.030700
     91 H351         5.3320     1.0570     0.6400 hc         1 PI8       0.034367
     92 H352         5.5900     1.4700     2.3470 hc         1 PI8       0.034367
     93 H353         5.9990    -0.1550     1.7430 hc         1 PI8       0.034367
     94 H41N         1.8150    -2.8960     4.6820 hn         1 PI8       0.301500
     95 H371         1.6080    -2.2690     7.5620 h1         1 PI8       0.054200
     96 H372         1.5310    -3.8800     6.8140 h1         1 PI8       0.054200
     97 H381        -0.7710    -3.5200     6.0780 hc         1 PI8       0.051200
     98 H382        -0.6810    -1.8090     6.4560 hc         1 PI8       0.051200
     99 H391        -0.4930    -2.3490     8.9100 hc         1 PI8       0.038700
    100 H392        -0.5970    -4.0600     8.5220 hc         1 PI8       0.038700
    101 H401        -2.7520    -3.4040     9.2860 hc         1 PI8       0.050700
    102 H402        -2.9250    -3.6770     7.5640 hc         1 PI8       0.050700
    103 H411        -2.5160    -0.8570     8.7350 h1         1 PI8       0.050700
    104 H412        -4.0930    -1.6260     8.6720 h1         1 PI8       0.050700
    105 HO31        -1.7430     2.6950     0.3450 ho         1 PI8       0.452000
@<TRIPOS>BOND
     1     1     2 1   
     2     1    20 1   
     3     1    52 1   
     4     2     3 1   
     5     2     6 1   
     6     2    53 1   
     7     3     4 1   
     8     3     5 1   
     9     3    54 1   
    10     4    55 1   
    11     5     7 1   
    12     5    56 1   
    13     5    57 1   
    14     6     7 ar  
    15     6     8 ar  
    16     7     9 ar  
    17     8    10 ar  
    18     8    58 1   
    19     9    11 ar  
    20     9    59 1   
    21    10    11 ar  
    22    10    60 1   
    23    11    61 1   
    24    12    13 1   
    25    12    20 1   
    26    12    22 1   
    27    12    62 1   
    28    13    14 1   
    29    13    63 1   
    30    13    64 1   
    31    14    15 ar  
    32    14    16 ar  
    33    15    17 ar  
    34    15    65 1   
    35    16    18 ar  
    36    16    66 1   
    37    17    19 ar  
    38    17    67 1   
    39    18    19 ar  
    40    18    68 1   
    41    19    69 1   
    42    20    21 2   
    43    22    24 1   
    44    22    70 1   
    45    22    71 1   
    46    23    24 1   
    47    23   105 1   
    48    24    25 1   
    49    24    72 1   
    50    25    26 1   
    51    25    73 1   
    52    25    74 1   
    53    26    27 1   
    54    26    75 1   
    55    27    28 1   
    56    27    36 1   
    57    27    76 1   
    58    28    29 1   
    59    28    77 1   
    60    28    78 1   
    61    29    30 ar  
    62    29    32 ar  
    63    30    31 ar  
    64    30    79 1   
    65    31    34 ar  
    66    31    80 1   
    67    32    33 ar  
    68    32    81 1   
    69    33    34 ar  
    70    33    82 1   
    71    34    35 1   
    72    35    51 1   
    73    36    37 2   
    74    36    38 1   
    75    38    39 1   
    76    38    83 1   
    77    39    40 1   
    78    39    44 1   
    79    39    84 1   
    80    40    41 1   
    81    40    42 1   
    82    40    85 1   
    83    41    86 1   
    84    41    87 1   
    85    41    88 1   
    86    42    43 1   
    87    42    89 1   
    88    42    90 1   
    89    43    91 1   
    90    43    92 1   
    91    43    93 1   
    92    44    45 2   
    93    44    46 1   
    94    46    47 1   
    95    46    94 1   
    96    47    48 1   
    97    47    95 1   
    98    47    96 1   
    99    48    49 1   
   100    48    97 1   
   101    48    98 1   
   102    49    50 1   
   103    49    99 1   
   104    49   100 1   
   105    50    51 1   
   106    50   101 1   
   107    50   102 1   
   108    51   103 1   
   109    51   104 1   
@<TRIPOS>SUBSTRUCTURE
     1 PI8         1 TEMP              0 ****  ****    0 ROOT
