@<TRIPOS>MOLECULE
PI8
  105   109     1     0     0
SMALL
abcg2


@<TRIPOS>ATOM
      1 N1           0.0660    -0.1590    -4.9600 ns         1 PI8      -0.493900
      2 C2           0.6290    -0.1680    -6.2810 c5         1 PI8       0.119000
      3 C1          -0.3220    -0.7320    -7.3700 c5         1 PI8       0.156300
      4 O1          -1.0550    -1.8310    -6.8850 oh         1 PI8      -0.659000
      5 C9           0.6390    -1.2390    -8.4490 c5         1 PI8      -0.033100
      6 C3           1.8500    -1.0380    -6.4190 ca         1 PI8      -0.106300
      7 C8           1.8590    -1.6440    -7.6700 ca         1 PI8      -0.070300
      8 C4           2.8730    -1.2520    -5.5130 ca         1 PI8      -0.088000
      9 C7           2.9050    -2.4760    -8.0350 ca         1 PI8      -0.094000
     10 C5           3.9220    -2.0920    -5.8760 ca         1 PI8      -0.116000
     11 C6           3.9380    -2.6970    -7.1280 ca         1 PI8      -0.105000
     12 C11         -0.9750     0.7130    -2.9550 c3         1 PI8      -0.125700
     13 C12         -2.4630     1.0940    -3.0610 c3         1 PI8      -0.024100
     14 C13         -3.1420     0.3630    -4.1870 ca         1 PI8      -0.091300
     15 C18         -3.5050    -0.9750    -4.0380 ca         1 PI8      -0.108000
     16 C14         -3.3720     0.9800    -5.4150 ca         1 PI8      -0.108000
     17 C17         -4.0790    -1.6810    -5.0870 ca         1 PI8      -0.117000
     18 C15         -3.9440     0.2780    -6.4690 ca         1 PI8      -0.117000
     19 C16         -4.2980    -1.0560    -6.3100 ca         1 PI8      -0.115000
     20 C10         -0.3270     0.9510    -4.3080 c          1 PI8       0.601100
     21 O2          -0.1960     2.0780    -4.7630 o          1 PI8      -0.607100
     22 C19         -0.2000     1.4810    -1.8810 c3         1 PI8      -0.098400
     23 O3          -1.8440     1.8940    -0.1180 oh         1 PI8      -0.648000
     24 C20         -0.6510     1.2160    -0.4450 c3         1 PI8       0.168300
     25 C21          0.4910     1.5650     0.5130 c3         1 PI8       0.159800
     26 N2           0.0580     1.5360     1.8840 n7         1 PI8      -0.945400
     27 C22          0.8510     2.1820     2.9010 c3         1 PI8       0.142500
     28 C23         -0.0150     3.0740     3.8050 c3         1 PI8      -0.007100
     29 C24         -1.0730     2.3370     4.5770 ca         1 PI8      -0.099300
     30 C25         -2.2170     1.8440     3.9520 ca         1 PI8      -0.083000
     31 C26         -3.1780     1.1370     4.6630 ca         1 PI8      -0.141500
     32 C29         -0.9440     2.1350     5.9500 ca         1 PI8      -0.083000
     33 C28         -1.9050     1.4490     6.6740 ca         1 PI8      -0.141500
     34 C27         -3.0220     0.9290     6.0270 ca         1 PI8       0.107100
     35 O6          -3.9770     0.2480     6.7200 os         1 PI8      -0.364100
     36 C30          1.7190     1.2220     3.7220 c          1 PI8       0.565100
     37 O4           1.9200     1.3700     4.9150 o          1 PI8      -0.565100
     38 N3           2.2650     0.2020     3.0320 ns         1 PI8      -0.525900
     39 C31          3.1050    -0.8030     3.6550 c3         1 PI8       0.044700
     40 C32          4.4730    -0.3120     4.1600 c3         1 PI8      -0.060700
     41 C33          5.4130    -1.5100     4.2950 c3         1 PI8      -0.090100
     42 C34          5.0720     0.7410     3.2230 c3         1 PI8      -0.068400
     43 C35          6.4210     1.2720     3.6920 c3         1 PI8      -0.088100
     44 C36          2.2890    -1.5460     4.7350 c          1 PI8       0.602100
     45 O5           2.6990    -1.7340     5.8690 o          1 PI8      -0.580100
     46 N4           1.1140    -2.0120     4.2830 ns         1 PI8      -0.505900
     47 C37          0.1470    -2.7460     5.0670 c3         1 PI8       0.101000
     48 C38         -1.1390    -1.9630     5.3050 c3         1 PI8      -0.103400
     49 C39         -2.1840    -2.8140     6.0150 c3         1 PI8      -0.070400
     50 C40         -3.5420    -2.1380     6.1930 c3         1 PI8      -0.107400
     51 C41         -3.5710    -1.0170     7.2440 c3         1 PI8       0.163600
     52 HN11        -0.0800    -1.0510    -4.5140 hn         1 PI8       0.319500
     53 H21          0.8830     0.8630    -6.5400 h1         1 PI8       0.096700
     54 H11         -0.9890     0.0490    -7.7510 h1         1 PI8       0.048700
     55 HO11        -1.7960    -1.5010    -6.3670 ho         1 PI8       0.451000
     56 H91          0.2020    -2.0450    -9.0410 hc         1 PI8       0.066200
     57 H92          0.8780    -0.4270    -9.1420 hc         1 PI8       0.066200
     58 H41          2.8590    -0.7830    -4.5360 ha         1 PI8       0.113000
     59 H71          2.9190    -2.9570    -9.0060 ha         1 PI8       0.116000
     60 H51          4.7280    -2.2790    -5.1780 ha         1 PI8       0.111000
     61 H61          4.7580    -3.3500    -7.3970 ha         1 PI8       0.113000
     62 H111        -0.9180    -0.3530    -2.7090 hc         1 PI8       0.047700
     63 H121        -2.9560     0.8550    -2.1190 hc         1 PI8       0.071200
     64 H122        -2.5530     2.1730    -3.2010 hc         1 PI8       0.071200
     65 H181        -3.3330    -1.4710    -3.0900 ha         1 PI8       0.118500
     66 H141        -3.0920     2.0170    -5.5530 ha         1 PI8       0.118500
     67 H171        -4.3540    -2.7190    -4.9500 ha         1 PI8       0.116500
     68 H151        -4.1120     0.7730    -7.4170 ha         1 PI8       0.116500
     69 H161        -4.7420    -1.6030    -7.1310 ha         1 PI8       0.118000
     70 H191        -0.2460     2.5560    -2.0760 hc         1 PI8       0.057700
     71 H192         0.8550     1.1970    -1.9680 hc         1 PI8       0.057700
     72 H201        -0.8740     0.1470    -0.3350 h1         1 PI8       0.060700
     73 H211         0.8470     2.5780     0.2910 h1         1 PI8       0.029200
     74 H212         1.3330     0.8940     0.2740 h1         1 PI8       0.029200
     75 HN21        -0.3140     0.6410     2.1660 hn         1 PI8       0.452000
     76 H221         1.5560     2.8530     2.3940 h1         1 PI8       0.063700
     77 H231         0.6270     3.6300     4.4890 hc         1 PI8       0.059700
     78 H232        -0.4810     3.8090     3.1460 hc         1 PI8       0.059700
     79 H251        -2.3510     2.0000     2.8890 ha         1 PI8       0.125000
     80 H261        -4.0550     0.7490     4.1590 ha         1 PI8       0.121500
     81 H291        -0.0780     2.5270     6.4660 ha         1 PI8       0.125000
     82 H281        -1.7830     1.3160     7.7420 ha         1 PI8       0.121500
     83 HN31         2.1420     0.1530     2.0340 hn         1 PI8       0.311500
     84 H311         3.2940    -1.5360     2.8630 h1         1 PI8       0.052700
     85 H321         4.3440     0.1450     5.1440 hc         1 PI8       0.091700
     86 H331         5.6670    -1.9130     3.3110 hc         1 PI8       0.038367
     87 H332         6.3450    -1.2300     4.7860 hc         1 PI8       0.038367
     88 H333         4.9710    -2.3120     4.8830 hc         1 PI8       0.038367
     89 H341         4.3870     1.5850     3.1310 hc         1 PI8       0.030700
     90 H342         5.1750     0.3200     2.2160 hc         1 PI8       0.030700
     91 H351         6.7480     2.1020     3.0650 hc         1 PI8       0.034367
     92 H352         6.3620     1.6400     4.7190 hc         1 PI8       0.034367
     93 H353         7.2030     0.5140     3.6590 hc         1 PI8       0.034367
     94 H41N         0.8530    -1.7950     3.3350 hn         1 PI8       0.301500
     95 H371         0.6080    -3.0200     6.0150 h1         1 PI8       0.054200
     96 H372        -0.0850    -3.6810     4.5480 h1         1 PI8       0.054200
     97 H381        -1.5390    -1.6190     4.3450 hc         1 PI8       0.051200
     98 H382        -0.9070    -1.0600     5.8740 hc         1 PI8       0.051200
     99 H391        -1.8010    -3.1290     6.9910 hc         1 PI8       0.038700
    100 H392        -2.3330    -3.7350     5.4430 hc         1 PI8       0.038700
    101 H401        -4.2730    -2.9000     6.4730 hc         1 PI8       0.050700
    102 H402        -3.8800    -1.7470     5.2290 hc         1 PI8       0.050700
    103 H411        -2.5940    -0.9260     7.7330 h1         1 PI8       0.050700
    104 H412        -4.2950    -1.2460     8.0250 h1         1 PI8       0.050700
    105 HO31        -1.6190     2.7830     0.1730 ho         1 PI8       0.452000
@<TRIPOS>BOND
     1     1     2 1   
     2     1    20 1   
     3     1    52 1   
     4     2     3 1   
     5     2     6 1   
     6     2    53 1   
     7     3     4 1   
     8     3     5 1   
     9     3    54 1   
    10     4    55 1   
    11     5     7 1   
    12     5    56 1   
    13     5    57 1   
    14     6     7 ar  
    15     6     8 ar  
    16     7     9 ar  
    17     8    10 ar  
    18     8    58 1   
    19     9    11 ar  
    20     9    59 1   
    21    10    11 ar  
    22    10    60 1   
    23    11    61 1   
    24    12    13 1   
    25    12    20 1   
    26    12    22 1   
    27    12    62 1   
    28    13    14 1   
    29    13    63 1   
    30    13    64 1   
    31    14    15 ar  
    32    14    16 ar  
    33    15    17 ar  
    34    15    65 1   
    35    16    18 ar  
    36    16    66 1   
    37    17    19 ar  
    38    17    67 1   
    39    18    19 ar  
    40    18    68 1   
    41    19    69 1   
    42    20    21 2   
    43    22    24 1   
    44    22    70 1   
    45    22    71 1   
    46    23    24 1   
    47    23   105 1   
    48    24    25 1   
    49    24    72 1   
    50    25    26 1   
    51    25    73 1   
    52    25    74 1   
    53    26    27 1   
    54    26    75 1   
    55    27    28 1   
    56    27    36 1   
    57    27    76 1   
    58    28    29 1   
    59    28    77 1   
    60    28    78 1   
    61    29    30 ar  
    62    29    32 ar  
    63    30    31 ar  
    64    30    79 1   
    65    31    34 ar  
    66    31    80 1   
    67    32    33 ar  
    68    32    81 1   
    69    33    34 ar  
    70    33    82 1   
    71    34    35 1   
    72    35    51 1   
    73    36    37 2   
    74    36    38 1   
    75    38    39 1   
    76    38    83 1   
    77    39    40 1   
    78    39    44 1   
    79    39    84 1   
    80    40    41 1   
    81    40    42 1   
    82    40    85 1   
    83    41    86 1   
    84    41    87 1   
    85    41    88 1   
    86    42    43 1   
    87    42    89 1   
    88    42    90 1   
    89    43    91 1   
    90    43    92 1   
    91    43    93 1   
    92    44    45 2   
    93    44    46 1   
    94    46    47 1   
    95    46    94 1   
    96    47    48 1   
    97    47    95 1   
    98    47    96 1   
    99    48    49 1   
   100    48    97 1   
   101    48    98 1   
   102    49    50 1   
   103    49    99 1   
   104    49   100 1   
   105    50    51 1   
   106    50   101 1   
   107    50   102 1   
   108    51   103 1   
   109    51   104 1   
@<TRIPOS>SUBSTRUCTURE
     1 PI8         1 TEMP              0 ****  ****    0 ROOT
