@<TRIPOS>MOLECULE
PI9
   91    93     1     0     0
SMALL
No Charge or Current Charge


@<TRIPOS>ATOM
      1 C4          -3.4770    -0.5360     6.1380 c3         1 PI9      -0.062400
      2 C5          -3.6210    -0.8830     4.6310 c3         1 PI9      -0.155400
      3 C6          -2.3500    -1.4330     3.9700 c          1 PI9       0.605100
      4 O1          -1.7590    -2.4140     4.3980 o          1 PI9      -0.608100
      5 C3          -2.6370     0.7180     6.4880 c3         1 PI9      -0.072400
      6 C2          -1.1150     0.5740     6.2530 c3         1 PI9      -0.115400
      7 N1          -1.9480    -0.7630     2.8350 ns         1 PI9      -0.495900
      8 C7          -0.7830    -1.1170     1.9870 c3         1 PI9       0.032700
      9 C8          -1.1480    -2.1380     0.8580 c3         1 PI9      -0.067700
     10 C10         -1.5190    -3.5380     1.3980 c3         1 PI9      -0.089600
     11 C9          -2.2380    -1.6100    -0.1090 c3         1 PI9      -0.089600
     12 C11         -0.1610     0.1750     1.3840 c          1 PI9       0.591100
     13 O2          -0.7670     1.2380     1.3200 o          1 PI9      -0.611100
     14 N2           1.1290     0.0340     0.9070 ns         1 PI9      -0.499900
     15 C12          1.9430     1.1230     0.3340 c3         1 PI9       0.071700
     16 C13          3.1130     1.4700     1.2970 c3         1 PI9      -0.037100
     17 C14          2.6610     1.5570     2.7530 ca         1 PI9      -0.102300
     18 C15          1.6570     2.4720     3.1260 ca         1 PI9      -0.089000
     19 C16          1.1380     2.4650     4.4300 ca         1 PI9      -0.134500
     20 C19          3.1840     0.6750     3.7190 ca         1 PI9      -0.089000
     21 C18          2.6770     0.6800     5.0300 ca         1 PI9      -0.134500
     22 C17          1.6330     1.5510     5.3810 ca         1 PI9       0.113100
     23 O3           1.1090     1.4620     6.6540 os         1 PI9      -0.360100
     24 C1          -0.2890     1.7030     6.9180 c3         1 PI9       0.164600
     25 C20          2.3970     0.7900    -1.1180 c3         1 PI9       0.165300
     26 O4           3.1550     1.8880    -1.6620 oh         1 PI9      -0.645000
     27 C21          1.2010     0.4580    -2.0600 c3         1 PI9       0.165800
     28 N3           1.6200    -0.1200    -3.3690 n3         1 PI9      -0.715500
     29 C22          1.0610    -1.4670    -3.6330 c3         1 PI9       0.197800
     30 C23          1.5820    -2.5530    -2.6580 c3         1 PI9      -0.076400
     31 C24          1.1080    -3.9950    -2.9830 c3         1 PI9      -0.063700
     32 C26          1.8060    -5.0240    -2.0640 c3         1 PI9      -0.090100
     33 C25         -0.4300    -4.1520    -2.9060 c3         1 PI9      -0.090100
     34 S            1.5480     0.9550    -4.6910 sy         1 PI9       1.168600
     35 O6           2.1290     2.2080    -4.1980 o          1 PI9      -0.541000
     36 O5           2.1460     0.2510    -5.8290 o          1 PI9      -0.541000
     37 C27         -0.2200     1.1550    -4.9480 ca         1 PI9      -0.380500
     38 C32         -0.9080     2.2230    -4.3390 ca         1 PI9       0.036000
     39 C28         -0.9160     0.2450    -5.7670 ca         1 PI9       0.036000
     40 C31         -2.2900     2.3660    -4.5430 ca         1 PI9      -0.217500
     41 C29         -2.2980     0.4000    -5.9620 ca         1 PI9      -0.217500
     42 C30         -2.9810     1.4560    -5.3500 ca         1 PI9       0.374000
     43 N4          -4.3230     1.6030    -5.5460 nv         1 PI9      -1.095000
     44 H41         -3.0780    -1.4050     6.6780 hc         1 PI9       0.053200
     45 H42         -4.4870    -0.3770     6.5380 hc         1 PI9       0.053200
     46 H51         -4.3860    -1.6620     4.5410 hc         1 PI9       0.057700
     47 H52         -3.9870    -0.0070     4.0820 hc         1 PI9       0.057700
     48 H31         -2.8020     0.9420     7.5500 hc         1 PI9       0.037700
     49 H32         -3.0140     1.5820     5.9270 hc         1 PI9       0.037700
     50 H21         -0.9180     0.5670     5.1760 hc         1 PI9       0.058200
     51 H22         -0.7740    -0.3890     6.6530 hc         1 PI9       0.058200
     52 HN11        -2.4900     0.0530     2.5740 hn         1 PI9       0.331500
     53 H71         -0.0090    -1.5610     2.6270 h1         1 PI9       0.089700
     54 H81         -0.2420    -2.2840     0.2570 hc         1 PI9       0.044700
     55 H101        -1.6130    -4.2560     0.5740 hc         1 PI9       0.039367
     56 H102        -0.7440    -3.9090     2.0800 hc         1 PI9       0.039367
     57 H103        -2.4740    -3.5150     1.9350 hc         1 PI9       0.039367
     58 H91         -3.1830    -1.4350     0.4190 hc         1 PI9       0.039367
     59 H92         -1.9280    -0.6700    -0.5810 hc         1 PI9       0.039367
     60 H93         -2.4290    -2.3340    -0.9100 hc         1 PI9       0.039367
     61 HN21         1.5600    -0.8750     1.0280 hn         1 PI9       0.314500
     62 H121         1.3110     2.0190     0.2660 h1         1 PI9       0.082700
     63 H131         3.8970     0.7100     1.1890 hc         1 PI9       0.063700
     64 H132         3.5660     2.4210     0.9910 hc         1 PI9       0.063700
     65 H151         1.2490     3.1640     2.3930 ha         1 PI9       0.111500
     66 H161         0.3480     3.1660     4.6820 ha         1 PI9       0.124000
     67 H191         3.9610    -0.0370     3.4480 ha         1 PI9       0.111500
     68 H181         3.0660    -0.0200     5.7640 ha         1 PI9       0.124000
     69 H11         -0.4690     1.6830     8.0000 h1         1 PI9       0.047200
     70 H12         -0.6110     2.6850     6.5510 h1         1 PI9       0.047200
     71 H20          3.0300    -0.1070    -1.0710 h1         1 PI9       0.073700
     72 HO4          2.8850     1.9660    -2.6120 ho         1 PI9       0.465000
     73 H211         0.5970     1.3640    -2.1910 h1         1 PI9       0.058200
     74 H212         0.5370    -0.2450    -1.5420 h1         1 PI9       0.058200
     75 H221         1.3280    -1.7990    -4.6450 h1         1 PI9       0.051700
     76 H222        -0.0360    -1.4280    -3.5860 h1         1 PI9       0.051700
     77 H231         1.2900    -2.3100    -1.6310 hc         1 PI9       0.049700
     78 H232         2.6780    -2.5280    -2.6830 hc         1 PI9       0.049700
     79 H241         1.4120    -4.2230    -4.0130 hc         1 PI9       0.050700
     80 H261         1.5110    -6.0460    -2.3310 hc         1 PI9       0.033700
     81 H262         2.8960    -4.9520    -2.1580 hc         1 PI9       0.033700
     82 H263         1.5390    -4.8530    -1.0140 hc         1 PI9       0.033700
     83 H251        -0.7980    -3.8960    -1.9060 hc         1 PI9       0.033700
     84 H252        -0.9350    -3.5100    -3.6370 hc         1 PI9       0.033700
     85 H253        -0.7220    -5.1870    -3.1210 hc         1 PI9       0.033700
     86 H321        -0.3830     2.9420    -3.7120 ha         1 PI9       0.131000
     87 H281        -0.3960    -0.5810    -6.2510 ha         1 PI9       0.131000
     88 H311        -2.8190     3.1880    -4.0700 ha         1 PI9       0.117500
     89 H291        -2.8330    -0.3060    -6.5900 ha         1 PI9       0.117500
     90 HN41        -4.7780     1.0640    -6.2800 hn         1 PI9       0.475000
     91 HN42        -4.7760     2.4700    -5.2640 hn         1 PI9       0.475000
@<TRIPOS>BOND
     1     1     2 1   
     2     1     5 1   
     3     1    44 1   
     4     1    45 1   
     5     2     3 1   
     6     2    46 1   
     7     2    47 1   
     8     3     4 2   
     9     3     7 1   
    10     5     6 1   
    11     5    48 1   
    12     5    49 1   
    13     6    24 1   
    14     6    50 1   
    15     6    51 1   
    16     7     8 1   
    17     7    52 1   
    18     8     9 1   
    19     8    12 1   
    20     8    53 1   
    21     9    10 1   
    22     9    11 1   
    23     9    54 1   
    24    10    55 1   
    25    10    56 1   
    26    10    57 1   
    27    11    58 1   
    28    11    59 1   
    29    11    60 1   
    30    12    13 2   
    31    12    14 1   
    32    14    15 1   
    33    14    61 1   
    34    15    16 1   
    35    15    25 1   
    36    15    62 1   
    37    16    17 1   
    38    16    63 1   
    39    16    64 1   
    40    17    18 ar  
    41    17    20 ar  
    42    18    19 ar  
    43    18    65 1   
    44    19    22 ar  
    45    19    66 1   
    46    20    21 ar  
    47    20    67 1   
    48    21    22 ar  
    49    21    68 1   
    50    22    23 1   
    51    23    24 1   
    52    24    69 1   
    53    24    70 1   
    54    25    26 1   
    55    25    27 1   
    56    25    71 1   
    57    26    72 1   
    58    27    28 1   
    59    27    73 1   
    60    27    74 1   
    61    28    29 1   
    62    28    34 1   
    63    29    30 1   
    64    29    75 1   
    65    29    76 1   
    66    30    31 1   
    67    30    77 1   
    68    30    78 1   
    69    31    32 1   
    70    31    33 1   
    71    31    79 1   
    72    32    80 1   
    73    32    81 1   
    74    32    82 1   
    75    33    83 1   
    76    33    84 1   
    77    33    85 1   
    78    34    35 2   
    79    34    36 2   
    80    34    37 1   
    81    37    38 ar  
    82    37    39 ar  
    83    38    40 ar  
    84    38    86 1   
    85    39    41 ar  
    86    39    87 1   
    87    40    42 ar  
    88    40    88 1   
    89    41    42 ar  
    90    41    89 1   
    91    42    43 1   
    92    43    90 1   
    93    43    91 1   
@<TRIPOS>SUBSTRUCTURE
     1 PI9         1 TEMP              0 ****  ****    0 ROOT
