@<TRIPOS>MOLECULE
PI9
   91    93     1     0     0
SMALL
bcc


@<TRIPOS>ATOM
      1 C4          -3.4010    -0.4410     6.0450 c3         1 PI9      -0.062400
      2 C5          -3.5310    -0.6660     4.5410 c3         1 PI9      -0.155400
      3 C6          -2.3140    -1.2930     3.8920 c          1 PI9       0.672100
      4 O1          -1.7040    -2.2170     4.4100 o          1 PI9      -0.608100
      5 C3          -2.5490     0.7610     6.4490 c3         1 PI9      -0.072400
      6 C2          -1.0610     0.6300     6.1390 c3         1 PI9      -0.115400
      7 N1          -1.9970    -0.7810     2.6860 ns         1 PI9      -0.562900
      8 C7          -0.8510    -1.1690     1.9090 c3         1 PI9       0.032700
      9 C8          -1.1980    -2.1140     0.7360 c3         1 PI9      -0.067700
     10 C10         -1.7520    -3.4400     1.2430 c3         1 PI9      -0.089600
     11 C9          -2.1530    -1.4810    -0.2710 c3         1 PI9      -0.089600
     12 C11         -0.1760     0.0950     1.3780 c          1 PI9       0.658100
     13 O2          -0.7650     1.1610     1.3110 o          1 PI9      -0.611100
     14 N2           1.0790    -0.0980     0.9360 ns         1 PI9      -0.566900
     15 C12          1.9270     0.9430     0.3940 c3         1 PI9       0.071700
     16 C13          3.1270     1.1880     1.3210 c3         1 PI9      -0.037100
     17 C14          2.6730     1.3470     2.7440 ca         1 PI9      -0.102300
     18 C15          1.9740     2.4820     3.1460 ca         1 PI9      -0.107000
     19 C16          1.4560     2.5950     4.4270 ca         1 PI9      -0.152500
     20 C19          2.8580     0.3310     3.6750 ca         1 PI9      -0.107000
     21 C18          2.3380     0.4250     4.9580 ca         1 PI9      -0.152500
     22 C17          1.6260     1.5550     5.3360 ca         1 PI9       0.113100
     23 O3           1.1380     1.6190     6.6060 os         1 PI9      -0.336900
     24 C1          -0.2730     1.7850     6.7340 c3         1 PI9       0.141400
     25 C20          2.3530     0.5500    -1.0290 c3         1 PI9       0.142100
     26 O4           3.3250     1.4180    -1.5470 oh         1 PI9      -0.582800
     27 C21          1.1260     0.4530    -1.9350 c3         1 PI9       0.165800
     28 N3           1.4530    -0.0520    -3.2650 n3         1 PI9      -0.715500
     29 C22          1.0060    -1.4220    -3.5350 c3         1 PI9       0.197800
     30 C23          1.6980    -2.4310    -2.6300 c3         1 PI9      -0.076400
     31 C24          1.3110    -3.8800    -2.9390 c3         1 PI9      -0.063700
     32 C26          2.1850    -4.8300    -2.1260 c3         1 PI9      -0.090100
     33 C25         -0.1650    -4.1550    -2.6640 c3         1 PI9      -0.090100
     34 S            1.3170     1.0170    -4.5280 sy         1 PI9       1.310200
     35 O6           1.8020     2.3030    -4.0410 o          1 PI9      -0.611800
     36 O5           1.9730     0.3980    -5.6700 o          1 PI9      -0.611800
     37 C27         -0.3930     1.1740    -4.8850 ca         1 PI9      -0.380500
     38 C32         -1.1590     2.1320    -4.2230 ca         1 PI9       0.018000
     39 C28         -1.0040     0.2980    -5.7800 ca         1 PI9       0.018000
     40 C31         -2.5170     2.2060    -4.4430 ca         1 PI9      -0.235500
     41 C29         -2.3620     0.3720    -6.0030 ca         1 PI9      -0.235500
     42 C30         -3.1520     1.3220    -5.3320 ca         1 PI9       0.235600
     43 N4          -4.4970     1.3620    -5.5120 nv         1 PI9      -0.846200
     44 H41         -3.0200    -1.3470     6.5220 hc         1 PI9       0.053200
     45 H42         -4.4070    -0.2900     6.4440 hc         1 PI9       0.053200
     46 H51         -4.3620    -1.3550     4.3590 hc         1 PI9       0.057700
     47 H52         -3.8000     0.2720     4.0470 hc         1 PI9       0.057700
     48 H31         -2.6740     0.9180     7.5250 hc         1 PI9       0.037700
     49 H32         -2.9450     1.6600     5.9650 hc         1 PI9       0.037700
     50 H21         -0.8990     0.6060     5.0590 hc         1 PI9       0.058200
     51 H22         -0.6790    -0.3140     6.5380 hc         1 PI9       0.058200
     52 HN11        -2.5030     0.0290     2.3640 hn         1 PI9       0.331500
     53 H71         -0.1530    -1.6920     2.5690 h1         1 PI9       0.089700
     54 H81         -0.2550    -2.3290     0.2210 hc         1 PI9       0.044700
     55 H101        -1.8780    -4.1390     0.4140 hc         1 PI9       0.039367
     56 H102        -1.0850    -3.9020     1.9710 hc         1 PI9       0.039367
     57 H103        -2.7290    -3.3110     1.7110 hc         1 PI9       0.039367
     58 H91         -3.1300    -1.2890     0.1760 hc         1 PI9       0.039367
     59 H92         -1.7840    -0.5360    -0.6740 hc         1 PI9       0.039367
     60 H93         -2.3040    -2.1530    -1.1170 hc         1 PI9       0.039367
     61 HN21         1.5130    -0.9880     1.1330 hn         1 PI9       0.314500
     62 H121         1.3250     1.8550     0.3530 h1         1 PI9       0.082700
     63 H131         3.8250     0.3490     1.2420 hc         1 PI9       0.063700
     64 H132         3.6570     2.0770     0.9780 hc         1 PI9       0.063700
     65 H151         1.8240     3.2940     2.4440 ha         1 PI9       0.129500
     66 H161         0.9210     3.4930     4.7120 ha         1 PI9       0.142000
     67 H191         3.4020    -0.5630     3.3900 ha         1 PI9       0.129500
     68 H181         2.4730    -0.3840     5.6650 ha         1 PI9       0.142000
     69 H11         -0.4550     1.8560     7.8080 h1         1 PI9       0.047200
     70 H12         -0.5970     2.7330     6.2890 h1         1 PI9       0.047200
     71 H20          2.8300    -0.4360    -0.9720 h1         1 PI9       0.073700
     72 HO4          2.8940     2.2020    -1.9040 ho         1 PI9       0.426000
     73 H211         0.6440     1.4340    -1.9820 h1         1 PI9       0.058200
     74 H212         0.3850    -0.2120    -1.4880 h1         1 PI9       0.058200
     75 H221         1.2430    -1.6730    -4.5680 h1         1 PI9       0.051700
     76 H222        -0.0840    -1.4860    -3.4250 h1         1 PI9       0.051700
     77 H231         1.4640    -2.2300    -1.5780 hc         1 PI9       0.049700
     78 H232         2.7790    -2.3120    -2.7400 hc         1 PI9       0.049700
     79 H241         1.5050    -4.0630    -4.0020 hc         1 PI9       0.050700
     80 H261         1.9550    -5.8720    -2.3540 hc         1 PI9       0.033700
     81 H262         3.2450    -4.6720    -2.3290 hc         1 PI9       0.033700
     82 H263         2.0270    -4.6840    -1.0540 hc         1 PI9       0.033700
     83 H251        -0.4040    -3.9520    -1.6160 hc         1 PI9       0.033700
     84 H252        -0.8290    -3.5450    -3.2770 hc         1 PI9       0.033700
     85 H253        -0.4110    -5.1990    -2.8590 hc         1 PI9       0.033700
     86 H321        -0.6980     2.8370    -3.5430 ha         1 PI9       0.149000
     87 H281        -0.4240    -0.4410    -6.3170 ha         1 PI9       0.149000
     88 H311        -3.1020     2.9590    -3.9280 ha         1 PI9       0.135500
     89 H291        -2.8250    -0.3100    -6.7060 ha         1 PI9       0.135500
     90 HN41        -4.8890     0.9070    -6.3180 hn         1 PI9       0.419800
     91 HN42        -4.9980     2.1790    -5.2080 hn         1 PI9       0.419800
@<TRIPOS>BOND
     1     1     2 1   
     2     1     5 1   
     3     1    44 1   
     4     1    45 1   
     5     2     3 1   
     6     2    46 1   
     7     2    47 1   
     8     3     4 2   
     9     3     7 1   
    10     5     6 1   
    11     5    48 1   
    12     5    49 1   
    13     6    24 1   
    14     6    50 1   
    15     6    51 1   
    16     7     8 1   
    17     7    52 1   
    18     8     9 1   
    19     8    12 1   
    20     8    53 1   
    21     9    10 1   
    22     9    11 1   
    23     9    54 1   
    24    10    55 1   
    25    10    56 1   
    26    10    57 1   
    27    11    58 1   
    28    11    59 1   
    29    11    60 1   
    30    12    13 2   
    31    12    14 1   
    32    14    15 1   
    33    14    61 1   
    34    15    16 1   
    35    15    25 1   
    36    15    62 1   
    37    16    17 1   
    38    16    63 1   
    39    16    64 1   
    40    17    18 ar  
    41    17    20 ar  
    42    18    19 ar  
    43    18    65 1   
    44    19    22 ar  
    45    19    66 1   
    46    20    21 ar  
    47    20    67 1   
    48    21    22 ar  
    49    21    68 1   
    50    22    23 1   
    51    23    24 1   
    52    24    69 1   
    53    24    70 1   
    54    25    26 1   
    55    25    27 1   
    56    25    71 1   
    57    26    72 1   
    58    27    28 1   
    59    27    73 1   
    60    27    74 1   
    61    28    29 1   
    62    28    34 1   
    63    29    30 1   
    64    29    75 1   
    65    29    76 1   
    66    30    31 1   
    67    30    77 1   
    68    30    78 1   
    69    31    32 1   
    70    31    33 1   
    71    31    79 1   
    72    32    80 1   
    73    32    81 1   
    74    32    82 1   
    75    33    83 1   
    76    33    84 1   
    77    33    85 1   
    78    34    35 2   
    79    34    36 2   
    80    34    37 1   
    81    37    38 ar  
    82    37    39 ar  
    83    38    40 ar  
    84    38    86 1   
    85    39    41 ar  
    86    39    87 1   
    87    40    42 ar  
    88    40    88 1   
    89    41    42 ar  
    90    41    89 1   
    91    42    43 1   
    92    43    90 1   
    93    43    91 1   
@<TRIPOS>SUBSTRUCTURE
     1 PI9         1 TEMP              0 ****  ****    0 ROOT
