@<TRIPOS>MOLECULE
PIA
   35    36     1     0     0
SMALL
bcc


@<TRIPOS>ATOM
      1 N1          -1.1280    -3.2100    -1.1680 n8         1 PIA      -0.877800
      2 CA1         -2.0500    -2.2480    -0.5940 c3         1 PIA       0.135200
      3 CB1         -2.5540    -2.6140     0.8080 c3         1 PIA      -0.132100
      4 C1          -1.3880    -0.9050    -0.5470 cc         1 PIA       0.505900
      5 N2          -0.1160    -0.7530    -0.3960 nd         1 PIA      -0.667300
      6 N3          -2.0900     0.2760    -0.6220 n          1 PIA      -0.372300
      7 C2          -1.1950     1.3100    -0.4690 c          1 PIA       0.683700
      8 O2          -1.4650     2.4950    -0.4740 o          1 PIA      -0.578500
      9 CA2          0.1060     0.6160    -0.3380 cd         1 PIA       0.035400
     10 CA3         -3.5140     0.4890    -0.6490 c3         1 PIA      -0.052000
     11 C3          -4.1110     0.8500     0.7320 c          1 PIA       0.924600
     12 O3          -3.3590     0.7690     1.7160 o          1 PIA      -0.821300
     13 CB2          1.2740     1.2720    -0.1940 ce         1 PIA      -0.058200
     14 CG2          2.6160     0.7470    -0.0690 ca         1 PIA      -0.068800
     15 CD1          2.9370    -0.6200    -0.0970 ca         1 PIA      -0.072000
     16 CD2          3.6710     1.6560     0.0850 ca         1 PIA      -0.072000
     17 CE1          4.2420    -1.0500     0.0230 ca         1 PIA      -0.207000
     18 CE2          4.9810     1.2360     0.2070 ca         1 PIA      -0.207000
     19 CZ           5.2780    -0.1250     0.1770 ca         1 PIA       0.126100
     20 OH           6.5280    -0.5990     0.2890 oh         1 PIA      -0.502100
     21 O31         -5.3110     1.1770     0.7010 o          1 PIA      -0.821300
     22 HN11        -0.3160    -3.2960    -0.5680 hn         1 PIA       0.339300
     23 HN12        -1.5730    -4.1200    -1.1710 hn         1 PIA       0.339300
     24 HA1         -2.9130    -2.1870    -1.2640 h1         1 PIA       0.073700
     25 HB11        -1.7120    -2.7170     1.4950 hc         1 PIA       0.052033
     26 HB12        -3.2310    -1.8670     1.2200 hc         1 PIA       0.052033
     27 HB13        -3.0810    -3.5680     0.7690 hc         1 PIA       0.052033
     28 HA31        -3.7340     1.2840    -1.3630 h1         1 PIA       0.041700
     29 HA32        -4.0040    -0.4070    -1.0320 h1         1 PIA       0.041700
     30 HB2          1.1950     2.3540    -0.1690 ha         1 PIA       0.134000
     31 HD1          2.1490    -1.3500    -0.2150 ha         1 PIA       0.149500
     32 HD2          3.4590     2.7180     0.1090 ha         1 PIA       0.149500
     33 HE1          4.4690    -2.1080    -0.0010 ha         1 PIA       0.128500
     34 HE2          5.7740     1.9660     0.3240 ha         1 PIA       0.128500
     35 HH           7.1570     0.1250     0.3900 ho         1 PIA       0.417000
@<TRIPOS>BOND
     1     1     2 1   
     2     1    22 1   
     3     1    23 1   
     4     2     3 1   
     5     2     4 1   
     6     2    24 1   
     7     3    25 1   
     8     3    26 1   
     9     3    27 1   
    10     4     5 2   
    11     4     6 1   
    12     5     9 1   
    13     6     7 1   
    14     6    10 1   
    15     7     8 2   
    16     7     9 1   
    17     9    13 2   
    18    10    11 1   
    19    10    28 1   
    20    10    29 1   
    21    11    12 1   
    22    11    21 1   
    23    13    14 1   
    24    13    30 1   
    25    14    15 ar  
    26    14    16 ar  
    27    15    17 ar  
    28    15    31 1   
    29    16    18 ar  
    30    16    32 1   
    31    17    19 ar  
    32    17    33 1   
    33    18    19 ar  
    34    18    34 1   
    35    19    20 1   
    36    20    35 1   
@<TRIPOS>SUBSTRUCTURE
     1 PIA         1 TEMP              0 ****  ****    0 ROOT
