@<TRIPOS>MOLECULE
PIA
   35    36     1     0     0
SMALL
No Charge or Current Charge


@<TRIPOS>ATOM
      1 N1          -1.8260    -3.1690    -1.2330 n8         1 PIA      -0.988200
      2 CA1         -2.1420    -2.1710    -0.1640 c3         1 PIA       0.135200
      3 CB1         -1.8440    -2.8080     1.2100 c3         1 PIA      -0.132100
      4 C1          -1.4490    -0.8020    -0.3440 cc         1 PIA       0.505900
      5 N2          -0.1200    -0.6460    -0.2220 nd         1 PIA      -0.667300
      6 N3          -2.1220     0.3690    -0.6750 n          1 PIA      -0.305300
      7 C2          -1.2270     1.4050    -0.7760 c          1 PIA       0.541200
      8 O2          -1.4510     2.5810    -1.0380 o          1 PIA      -0.503000
      9 CA2          0.0430     0.7120    -0.4830 cd         1 PIA       0.035400
     10 CA3         -3.5870     0.5440    -0.8740 c3         1 PIA      -0.052000
     11 C3          -4.3770     0.8070     0.4280 c          1 PIA       0.714000
     12 O3          -4.3140    -0.0270     1.3200 o          1 PIA      -0.716000
     13 CB2          1.2780     1.3310    -0.4480 ce         1 PIA      -0.108200
     14 CG2          2.6470     0.7830    -0.2000 ca         1 PIA      -0.068800
     15 CD1          3.0040    -0.5320    -0.5680 ca         1 PIA      -0.054000
     16 CD2          3.6200     1.6150     0.3900 ca         1 PIA      -0.054000
     17 CE1          4.3070    -1.0070    -0.3320 ca         1 PIA      -0.189000
     18 CE2          4.9220     1.1370     0.6260 ca         1 PIA      -0.189000
     19 CZ           5.2620    -0.1750     0.2660 ca         1 PIA       0.126100
     20 OH           6.5210    -0.6430     0.4900 oh         1 PIA      -0.541100
     21 O31         -5.0020     1.8530     0.5250 o          1 PIA      -0.716000
     22 HN11        -0.8100    -3.3230    -1.2460 hn         1 PIA       0.394500
     23 HN12        -2.2070    -4.0840    -0.9650 hn         1 PIA       0.394500
     24 HA1         -3.2270    -2.0070    -0.1950 h1         1 PIA       0.073700
     25 HB11        -0.7760    -3.0370     1.3170 hc         1 PIA       0.052033
     26 HB12        -2.1250    -2.1190     2.0160 hc         1 PIA       0.052033
     27 HB13        -2.4140    -3.7350     1.3460 hc         1 PIA       0.052033
     28 HA31        -3.7570     1.3860    -1.5570 h1         1 PIA       0.041700
     29 HA32        -4.0030    -0.3490    -1.3550 h1         1 PIA       0.041700
     30 HB2          1.2470     2.4090    -0.6130 ha         1 PIA       0.184000
     31 HD1          2.2820    -1.1850    -1.0500 ha         1 PIA       0.131500
     32 HD2          3.3650     2.6350     0.6720 ha         1 PIA       0.131500
     33 HE1          4.5730    -2.0210    -0.6190 ha         1 PIA       0.110500
     34 HE2          5.6570     1.7920     1.0870 ha         1 PIA       0.110500
     35 HH           7.0460     0.0720     0.9100 ho         1 PIA       0.456000
@<TRIPOS>BOND
     1     1     2 1   
     2     1    22 1   
     3     1    23 1   
     4     2     3 1   
     5     2     4 1   
     6     2    24 1   
     7     3    25 1   
     8     3    26 1   
     9     3    27 1   
    10     4     5 2   
    11     4     6 1   
    12     5     9 1   
    13     6     7 1   
    14     6    10 1   
    15     7     8 2   
    16     7     9 1   
    17     9    13 2   
    18    10    11 1   
    19    10    28 1   
    20    10    29 1   
    21    11    12 1   
    22    11    21 1   
    23    13    14 1   
    24    13    30 1   
    25    14    15 ar  
    26    14    16 ar  
    27    15    17 ar  
    28    15    31 1   
    29    16    18 ar  
    30    16    32 1   
    31    17    19 ar  
    32    17    33 1   
    33    18    19 ar  
    34    18    34 1   
    35    19    20 1   
    36    20    35 1   
@<TRIPOS>SUBSTRUCTURE
     1 PIA         1 TEMP              0 ****  ****    0 ROOT
