@<TRIPOS>MOLECULE
PIC
   26    27     1     0     0
SMALL
bcc


@<TRIPOS>ATOM
      1 C1          -0.0130     0.7370    -2.6010 c3         1 PIC       0.341700
      2 C2          -0.2230     0.5350    -1.1350 ca         1 PIC      -0.062300
      3 C3          -1.5150     0.1810    -0.6750 ca         1 PIC      -0.072000
      4 C7           0.1060    -0.0410     3.8930 ca         1 PIC      -0.172600
      5 C8           1.3950     0.3090     3.4260 ca         1 PIC      -0.118000
      6 C9           1.6320     0.5300     2.0980 ca         1 PIC      -0.162000
      7 C10          0.5900     0.4170     1.1470 ca         1 PIC      -0.039000
      8 C11          0.8030     0.6410    -0.2330 ca         1 PIC      -0.119000
      9 C12         -0.1360    -0.2880     5.3760 c          1 PIC       0.929200
     10 C4          -1.7480    -0.0390     0.6530 ca         1 PIC      -0.171000
     11 C5          -0.7060     0.0710     1.6050 ca         1 PIC      -0.057000
     12 C6          -0.9160    -0.1540     2.9830 ca         1 PIC      -0.105000
     13 O1           0.8480    -0.1530     6.1290 o          1 PIC      -0.860800
     14 O2          -1.2940    -0.6040     5.7120 o          1 PIC      -0.860800
     15 F1          -1.0120     1.5770    -3.0660 f          1 PIC      -0.289800
     16 F2           1.1510     1.4540    -2.7950 f          1 PIC      -0.289800
     17 P            0.0370    -0.8540    -3.6190 p5         1 PIC       1.122700
     18 OP1          1.2040    -1.6090    -2.9920 o          1 PIC      -0.909500
     19 OP2         -1.3410    -1.4620    -3.3730 o          1 PIC      -0.909500
     20 OP3          0.2770    -0.3600    -5.0430 o          1 PIC      -0.909500
     21 HC3         -2.3200     0.0730    -1.3870 ha         1 PIC       0.154000
     22 HC8          2.2020     0.4010     4.1410 ha         1 PIC       0.117000
     23 HC9          2.6260     0.7970     1.7570 ha         1 PIC       0.096000
     24 HC11         1.8020     0.9030    -0.5580 ha         1 PIC       0.128000
     25 HC4         -2.7420    -0.3090     0.9920 ha         1 PIC       0.095000
     26 HC6         -1.9080    -0.4230     3.3240 ha         1 PIC       0.125000
@<TRIPOS>BOND
     1     1     2 1   
     2     1    15 1   
     3     1    16 1   
     4     1    17 1   
     5     2     3 ar  
     6     2     8 ar  
     7     3    10 ar  
     8     3    21 1   
     9     4     5 ar  
    10     4     9 1   
    11     4    12 ar  
    12     5     6 ar  
    13     5    22 1   
    14     6     7 ar  
    15     6    23 1   
    16     7     8 ar  
    17     7    11 ar  
    18     8    24 1   
    19     9    13 1   
    20     9    14 1   
    21    10    11 ar  
    22    10    25 1   
    23    11    12 ar  
    24    12    26 1   
    25    17    18 1   
    26    17    19 1   
    27    17    20 1   
@<TRIPOS>SUBSTRUCTURE
     1 PIC         1 TEMP              0 ****  ****    0 ROOT
