@<TRIPOS>MOLECULE
PIC
   26    27     1     0     0
SMALL
No Charge or Current Charge


@<TRIPOS>ATOM
      1 C1          -0.0790     0.8020    -2.6330 c3         1 PIC      -0.058700
      2 C2          -0.3010     0.5550    -1.1320 ca         1 PIC      -0.062300
      3 C3          -1.5920     0.2560    -0.6440 ca         1 PIC      -0.054000
      4 C7           0.1260    -0.0500     3.9290 ca         1 PIC      -0.172600
      5 C8           1.4190     0.2420     3.4340 ca         1 PIC      -0.100000
      6 C9           1.6330     0.4620     2.0620 ca         1 PIC      -0.144000
      7 C10          0.5600     0.3950     1.1570 ca         1 PIC      -0.039000
      8 C11          0.7740     0.6160    -0.2170 ca         1 PIC      -0.101000
      9 C12         -0.1080    -0.2880     5.4140 c          1 PIC       0.718600
     10 C4          -1.8070     0.0340     0.7270 ca         1 PIC      -0.153000
     11 C5          -0.7340     0.1040     1.6330 ca         1 PIC      -0.057000
     12 C6          -0.9470    -0.1160     3.0070 ca         1 PIC      -0.087000
     13 O1           0.8460    -0.2220     6.1770 o          1 PIC      -0.755500
     14 O2          -1.2410    -0.5360     5.8000 o          1 PIC      -0.755500
     15 F1          -1.1340     1.4730    -3.1670 f          1 PIC      -0.168500
     16 F2           0.9960     1.6080    -2.8410 f          1 PIC      -0.168500
     17 P            0.1750    -0.8010    -3.6260 p5         1 PIC       1.280500
     18 OP1          1.3700    -1.5360    -3.1100 o          1 PIC      -0.909500
     19 OP2         -1.0330    -1.6730    -3.5000 o          1 PIC      -0.909500
     20 OP3          0.3900    -0.4730    -5.0690 o          1 PIC      -0.909500
     21 HC3         -2.4330     0.1930    -1.3310 ha         1 PIC       0.136000
     22 HC8          2.2670     0.3010     4.1130 ha         1 PIC       0.099000
     23 HC9          2.6360     0.6850     1.7060 ha         1 PIC       0.078000
     24 HC11         1.7780     0.8340    -0.5720 ha         1 PIC       0.110000
     25 HC4         -2.8100    -0.1930     1.0820 ha         1 PIC       0.077000
     26 HC6         -1.9530    -0.3390     3.3570 ha         1 PIC       0.107000
@<TRIPOS>BOND
     1     1     2 1   
     2     1    15 1   
     3     1    16 1   
     4     1    17 1   
     5     2     3 ar  
     6     2     8 ar  
     7     3    10 ar  
     8     3    21 1   
     9     4     5 ar  
    10     4     9 1   
    11     4    12 ar  
    12     5     6 ar  
    13     5    22 1   
    14     6     7 ar  
    15     6    23 1   
    16     7     8 ar  
    17     7    11 ar  
    18     8    24 1   
    19     9    13 1   
    20     9    14 1   
    21    10    11 ar  
    22    10    25 1   
    23    11    12 ar  
    24    12    26 1   
    25    17    18 1   
    26    17    19 1   
    27    17    20 1   
@<TRIPOS>SUBSTRUCTURE
     1 PIC         1 TEMP              0 ****  ****    0 ROOT
