@<TRIPOS>MOLECULE
PID
   96    99     1     0     0
SMALL
bcc


@<TRIPOS>ATOM
      1 C1          58.0860    87.4330    29.9300 cx         1 PID       0.100800
      2 C2          59.3730    87.7560    30.6470 c6         1 PID      -0.064400
      3 C3          59.7790    89.2100    30.5050 c6         1 PID       0.151100
      4 C4          59.8140    89.5700    29.0300 c6         1 PID      -0.108400
      5 C5          58.4550    89.4870    28.3160 c6         1 PID      -0.015000
      6 C6          57.6300    88.2750    28.8010 cx         1 PID       0.116000
      7 C7          56.7090    87.6970    27.7890 c2         1 PID      -0.118200
      8 C8          55.3800    87.6890    27.9310 ce         1 PID      -0.110000
      9 C9          54.4230    87.1550    26.9900 cc         1 PID      -0.156200
     10 C10         54.7200    86.5250    25.6960 c          1 PID       0.725800
     11 C11         53.0750    87.1310    27.1220 cd         1 PID      -0.105000
     12 C12         52.5080    86.5110    25.9670 cd         1 PID       0.057100
     13 C13         51.2010    86.2920    25.7120 ce         1 PID      -0.086000
     14 C14         50.5570    85.6790    24.5820 ce         1 PID      -0.060200
     15 C15         49.1960    85.6220    24.6310 cf         1 PID      -0.114000
     16 C16         48.3050    85.0810    23.6530 cf         1 PID      -0.127000
     17 C17         46.9630    85.0740    23.8380 ce         1 PID      -0.114000
     18 C18         46.0160    84.5510    22.9010 ce         1 PID      -0.133000
     19 C19         44.6830    84.5390    23.1400 cf         1 PID      -0.109000
     20 C20         43.7160    84.0190    22.2180 cf         1 PID      -0.136000
     21 C21         42.3780    83.9310    22.4160 ce         1 PID      -0.048200
     22 C22         41.5560    83.3610    21.3540 ce         1 PID      -0.150100
     23 C23         40.2600    83.1760    21.4580 c1         1 PID      -0.012800
     24 C24         38.9840    82.9840    21.6240 c2         1 PID      -0.106500
     25 C25         37.9610    84.0670    21.2700 c6         1 PID       0.016200
     26 C26         37.0440    84.2770    22.4870 c6         1 PID      -0.092400
     27 C27         36.4710    82.9820    23.0360 c6         1 PID       0.161100
     28 C28         37.5840    82.0370    23.4460 c6         1 PID      -0.109400
     29 C29         38.4970    81.6840    22.2650 c6         1 PID       0.213000
     30 C31         33.8190    83.8800    25.4530 c3         1 PID      -0.157100
     31 CM1         57.6610    85.9960    30.0700 c3         1 PID      -0.081100
     32 CM2         58.7350    89.3910    26.8140 c3         1 PID      -0.085100
     33 CM3         57.6330    90.7530    28.5750 c3         1 PID      -0.085100
     34 CM4         51.3620    85.1440    23.4360 c3         1 PID      -0.051900
     35 CM5         41.6750    84.3620    23.6650 c3         1 PID      -0.056900
     36 CM6         38.6570    85.3950    20.9750 c3         1 PID      -0.082100
     37 CM7         37.1410    83.6910    20.0280 c3         1 PID      -0.082100
     38 CM8         39.6420    80.8090    22.7610 c3         1 PID      -0.119100
     39 O1          57.0660    88.4110    30.0970 op         1 PID      -0.396600
     40 O2          61.0530    89.3500    31.1060 oh         1 PID      -0.598800
     41 O3          55.7600    86.3130    25.1330 o          1 PID      -0.548500
     42 O4          53.5350    86.1610    25.1300 os         1 PID      -0.319200
     43 O5          37.7710    80.9940    21.2600 oh         1 PID      -0.588800
     44 O6          35.7040    83.2460    24.2250 os         1 PID      -0.437900
     45 O7          33.8700    83.7650    23.0520 o          1 PID      -0.536000
     46 H21         59.2620    87.4870    31.7030 hc         1 PID       0.065200
     47 H22A        60.1660    87.1190    30.2400 hc         1 PID       0.065200
     48 H3          59.0490    89.8410    31.0280 h1         1 PID       0.047700
     49 H41         60.2060    90.5840    28.8950 hc         1 PID       0.050200
     50 H42         60.5220    88.8930    28.5400 hc         1 PID       0.050200
     51 H7          57.1710    87.2830    26.9020 ha         1 PID       0.155000
     52 H8          54.9440    88.1090    28.8310 ha         1 PID       0.142000
     53 H11         52.4940    87.5080    27.9510 ha         1 PID       0.165000
     54 H13         50.5460    86.6450    26.5010 ha         1 PID       0.133000
     55 H15         48.7150    86.0340    25.5140 ha         1 PID       0.115000
     56 H16         48.7060    84.6620    22.7360 ha         1 PID       0.129000
     57 H17         46.5620    85.4900    24.7590 ha         1 PID       0.118000
     58 H18         46.3960    84.1460    21.9680 ha         1 PID       0.125000
     59 H19         44.3370    84.9450    24.0850 ha         1 PID       0.121000
     60 H20         44.1080    83.6530    21.2730 ha         1 PID       0.123000
     61 H22         42.0580    83.0660    20.4360 ha         1 PID       0.143000
     62 H261        37.6190    84.7640    23.2820 hc         1 PID       0.055200
     63 H262        36.2410    84.9630    22.2050 hc         1 PID       0.055200
     64 H27         35.8260    82.4970    22.3010 h1         1 PID       0.076700
     65 H281        38.1870    82.5020    24.2320 hc         1 PID       0.057200
     66 H282        37.1670    81.1150    23.8640 hc         1 PID       0.057200
     67 H311        32.7620    84.1070    25.3490 hc         1 PID       0.068367
     68 H312        33.9390    83.0130    26.1020 hc         1 PID       0.068367
     69 H313        34.3140    84.7200    25.9410 hc         1 PID       0.068367
     70 HM11        56.7220    85.7840    29.5630 hc         1 PID       0.050700
     71 HM12        58.4270    85.3390    29.6560 hc         1 PID       0.050700
     72 HM13        57.5450    85.7400    31.1250 hc         1 PID       0.050700
     73 HM21        57.8250    89.4780    26.2190 hc         1 PID       0.040033
     74 HM22        59.4030    90.2000    26.5150 hc         1 PID       0.040033
     75 HM23        59.2240    88.4510    26.5480 hc         1 PID       0.040033
     76 HM31        56.6320    90.6710    28.1450 hc         1 PID       0.040033
     77 HM32        57.5250    90.9650    29.6390 hc         1 PID       0.040033
     78 HM33        58.1200    91.6140    28.1150 hc         1 PID       0.040033
     79 HM41        50.7360    84.6790    22.6790 hc         1 PID       0.050033
     80 HM42        51.9320    85.9350    22.9460 hc         1 PID       0.050033
     81 HM43        52.0790    84.3940    23.7700 hc         1 PID       0.050033
     82 HM51        41.1720    83.5130    24.1330 hc         1 PID       0.044033
     83 HM52        42.3390    84.8010    24.4040 hc         1 PID       0.044033
     84 HM53        40.8970    85.0930    23.4390 hc         1 PID       0.044033
     85 HM61        37.9080    86.1650    20.7770 hc         1 PID       0.040033
     86 HM62        39.2630    85.7310    21.8190 hc         1 PID       0.040033
     87 HM63        39.3050    85.3260    20.1010 hc         1 PID       0.040033
     88 HM71        36.4830    84.5230    19.7680 hc         1 PID       0.040033
     89 HM72        37.7970    83.5100    19.1760 hc         1 PID       0.040033
     90 HM73        36.5210    82.8090    20.1650 hc         1 PID       0.040033
     91 HM81        39.2410    79.9030    23.2220 hc         1 PID       0.046367
     92 HM82        40.2950    80.5110    21.9410 hc         1 PID       0.046367
     93 HM83        40.2500    81.3160    23.5110 hc         1 PID       0.046367
     94 HO2         61.2950    90.2800    31.0750 ho         1 PID       0.404000
     95 HO5         37.4010    80.1950    21.6540 ho         1 PID       0.402000
     96 C30         34.4370    83.6310    24.1080 c          1 PID       0.645100
@<TRIPOS>BOND
     1     1     2 1   
     2     1     6 1   
     3     1    31 1   
     4     1    39 1   
     5     2     3 1   
     6     2    46 1   
     7     2    47 1   
     8     3     4 1   
     9     3    40 1   
    10     3    48 1   
    11     4     5 1   
    12     4    49 1   
    13     4    50 1   
    14     5     6 1   
    15     5    32 1   
    16     5    33 1   
    17     6     7 1   
    18     6    39 1   
    19     7     8 2   
    20     7    51 1   
    21     8     9 1   
    22     8    52 1   
    23     9    10 1   
    24     9    11 2   
    25    10    41 2   
    26    10    42 1   
    27    11    12 1   
    28    11    53 1   
    29    12    13 2   
    30    12    42 1   
    31    13    14 1   
    32    13    54 1   
    33    14    15 2   
    34    14    34 1   
    35    15    16 1   
    36    15    55 1   
    37    16    17 2   
    38    16    56 1   
    39    17    18 1   
    40    17    57 1   
    41    18    19 2   
    42    18    58 1   
    43    19    20 1   
    44    19    59 1   
    45    20    21 2   
    46    20    60 1   
    47    21    22 1   
    48    21    35 1   
    49    22    23 2   
    50    22    61 1   
    51    23    24 2   
    52    24    25 1   
    53    24    29 1   
    54    25    26 1   
    55    25    36 1   
    56    25    37 1   
    57    26    27 1   
    58    26    62 1   
    59    26    63 1   
    60    27    28 1   
    61    27    44 1   
    62    27    64 1   
    63    28    29 1   
    64    28    65 1   
    65    28    66 1   
    66    29    38 1   
    67    29    43 1   
    68    30    67 1   
    69    30    68 1   
    70    30    69 1   
    71    30    96 1   
    72    31    70 1   
    73    31    71 1   
    74    31    72 1   
    75    32    73 1   
    76    32    74 1   
    77    32    75 1   
    78    33    76 1   
    79    33    77 1   
    80    33    78 1   
    81    34    79 1   
    82    34    80 1   
    83    34    81 1   
    84    35    82 1   
    85    35    83 1   
    86    35    84 1   
    87    36    85 1   
    88    36    86 1   
    89    36    87 1   
    90    37    88 1   
    91    37    89 1   
    92    37    90 1   
    93    38    91 1   
    94    38    92 1   
    95    38    93 1   
    96    40    94 1   
    97    43    95 1   
    98    44    96 1   
    99    45    96 2   
@<TRIPOS>SUBSTRUCTURE
     1 PID         1 TEMP              0 ****  ****    0 ROOT
