@<TRIPOS>MOLECULE
PID
   96    99     1     0     0
SMALL
No Charge or Current Charge


@<TRIPOS>ATOM
      1 C1          59.0960    87.2070    29.4190 cx         1 PID       0.124000
      2 C2          60.5230    87.7010    29.7190 c6         1 PID      -0.064400
      3 C3          60.6670    89.2390    29.7390 c6         1 PID       0.174300
      4 C4          60.0920    89.8400    28.4350 c6         1 PID      -0.108400
      5 C5          58.5450    89.6640    28.3110 c6         1 PID      -0.015000
      6 C6          58.1460    88.1400    28.6600 cx         1 PID       0.139200
      7 C7          57.0610    87.5600    27.8180 c2         1 PID      -0.168200
      8 C8          55.7540    87.8060    28.0440 ce         1 PID      -0.160000
      9 C9          54.6440    87.2390    27.2810 cc         1 PID      -0.156200
     10 C10         54.6180    87.1120    25.8100 c          1 PID       0.650300
     11 C11         53.4460    86.7800    27.7450 cd         1 PID      -0.155000
     12 C12         52.7180    86.3640    26.5930 cd         1 PID       0.057100
     13 C13         51.4360    85.8540    26.5860 ce         1 PID      -0.136000
     14 C14         50.6210    85.4110    25.4350 ce         1 PID      -0.060200
     15 C15         49.2580    85.4080    25.5340 cf         1 PID      -0.164000
     16 C16         48.2980    84.9910    24.5150 cf         1 PID      -0.177000
     17 C17         46.9510    84.9610    24.7010 ce         1 PID      -0.164000
     18 C18         45.9820    84.5500    23.6810 ce         1 PID      -0.183000
     19 C19         44.6360    84.5190    23.8670 cf         1 PID      -0.159000
     20 C20         43.6760    84.1020    22.8470 cf         1 PID      -0.186000
     21 C21         42.3140    84.0920    22.9520 ce         1 PID      -0.048200
     22 C22         41.4960    83.6300    21.8110 ce         1 PID      -0.200100
     23 C23         40.0980    83.4130    21.8840 c1         1 PID      -0.012800
     24 C24         38.7900    83.2240    21.9840 c2         1 PID      -0.106500
     25 C25         37.7890    84.0610    21.1530 c6         1 PID       0.016200
     26 C26         36.4070    84.1610    21.8680 c6         1 PID      -0.092400
     27 C27         35.8470    82.7900    22.3270 c6         1 PID       0.184300
     28 C28         36.7920    82.1620    23.3660 c6         1 PID      -0.109400
     29 C29         38.2230    81.9250    22.7630 c6         1 PID       0.236200
     30 C31         32.1850    83.3520    22.9930 c3         1 PID      -0.157100
     31 CM1         58.9750    85.6650    29.3720 c3         1 PID      -0.081100
     32 CM2         58.1450    90.1080    26.8400 c3         1 PID      -0.085100
     33 CM3         57.8280    90.7240    29.2540 c3         1 PID      -0.085100
     34 CM4         51.3550    84.8730    24.2100 c3         1 PID      -0.051900
     35 CM5         41.5860    84.5960    24.2000 c3         1 PID      -0.056900
     36 CM6         38.3180    85.5180    20.9280 c3         1 PID      -0.082100
     37 CM7         37.6400    83.4100    19.7430 c3         1 PID      -0.082100
     38 CM8         39.1550    81.4740    23.9580 c3         1 PID      -0.119100
     39 O1          58.0130    87.8860    30.0850 op         1 PID      -0.443000
     40 O2          62.0500    89.5870    29.8630 oh         1 PID      -0.661000
     41 O3          55.5010    87.4380    25.0280 o          1 PID      -0.473000
     42 O4          53.4160    86.5680    25.4320 os         1 PID      -0.319200
     43 O5          38.1310    80.7580    21.8960 oh         1 PID      -0.651000
     44 O6          34.5420    82.9450    22.9200 os         1 PID      -0.461100
     45 O7          33.4400    83.2210    20.9230 o          1 PID      -0.487000
     46 H21         60.8530    87.2880    30.6810 hc         1 PID       0.065200
     47 H22A        61.1970    87.2840    28.9580 hc         1 PID       0.065200
     48 H3          60.1100    89.6360    30.6010 h1         1 PID       0.047700
     49 H41         60.3480    90.9070    28.3710 hc         1 PID       0.050200
     50 H42         60.5880    89.3640    27.5770 hc         1 PID       0.050200
     51 H7          57.3890    86.9310    26.9900 ha         1 PID       0.205000
     52 H8          55.4700    88.4020    28.9130 ha         1 PID       0.192000
     53 H11         53.1150    86.7420    28.7800 ha         1 PID       0.215000
     54 H13         50.9580    85.8210    27.5650 ha         1 PID       0.183000
     55 H15         48.8240    85.7710    26.4680 ha         1 PID       0.165000
     56 H16         48.6830    84.6950    23.5370 ha         1 PID       0.179000
     57 H17         46.5490    85.2590    25.6720 ha         1 PID       0.168000
     58 H18         46.3840    84.2510    22.7100 ha         1 PID       0.175000
     59 H19         44.2500    84.8150    24.8440 ha         1 PID       0.171000
     60 H20         44.1090    83.7500    21.9090 ha         1 PID       0.173000
     61 H22         42.0140    83.3570    20.8910 ha         1 PID       0.193000
     62 H261        36.4970    84.8140    22.7470 hc         1 PID       0.055200
     63 H262        35.6890    84.6560    21.2020 hc         1 PID       0.055200
     64 H27         35.7610    82.1080    21.4680 h1         1 PID       0.076700
     65 H281        36.8650    82.8310    24.2340 hc         1 PID       0.057200
     66 H282        36.3670    81.2190    23.7360 hc         1 PID       0.057200
     67 H311        31.2870    83.5280    22.3900 hc         1 PID       0.068367
     68 H312        32.0740    82.4790    23.6460 hc         1 PID       0.068367
     69 H313        32.3590    84.1590    23.7130 hc         1 PID       0.068367
     70 HM11        57.9290    85.3440    29.4430 hc         1 PID       0.050700
     71 HM12        59.3850    85.2730    28.4340 hc         1 PID       0.050700
     72 HM13        59.5230    85.2000    30.2000 hc         1 PID       0.050700
     73 HM21        57.0580    90.1030    26.6960 hc         1 PID       0.040033
     74 HM22        58.4980    91.1220    26.6130 hc         1 PID       0.040033
     75 HM23        58.5780    89.4350    26.0910 hc         1 PID       0.040033
     76 HM31        56.7380    90.6630    29.1570 hc         1 PID       0.040033
     77 HM32        58.0650    90.5610    30.3120 hc         1 PID       0.040033
     78 HM33        58.1230    91.7510    29.0080 hc         1 PID       0.040033
     79 HM41        50.8090    84.0560    23.7270 hc         1 PID       0.050033
     80 HM42        51.5120    85.6600    23.4640 hc         1 PID       0.050033
     81 HM43        52.3340    84.4570    24.4740 hc         1 PID       0.050033
     82 HM51        41.5150    83.8070    24.9570 hc         1 PID       0.044033
     83 HM52        42.1030    85.4480    24.6540 hc         1 PID       0.044033
     84 HM53        40.5700    84.9490    23.9900 hc         1 PID       0.044033
     85 HM61        37.5820    86.1310    20.3940 hc         1 PID       0.040033
     86 HM62        38.5280    86.0170    21.8820 hc         1 PID       0.040033
     87 HM63        39.2400    85.5380    20.3340 hc         1 PID       0.040033
     88 HM71        36.9330    83.9670    19.1160 hc         1 PID       0.040033
     89 HM72        38.6000    83.3860    19.2120 hc         1 PID       0.040033
     90 HM73        37.2810    82.3770    19.8010 hc         1 PID       0.040033
     91 HM81        38.7260    80.6300    24.5130 hc         1 PID       0.046367
     92 HM82        40.1450    81.1630    23.6030 hc         1 PID       0.046367
     93 HM83        39.3030    82.2940    24.6700 hc         1 PID       0.046367
     94 HO2         62.0900    90.5660    29.9310 ho         1 PID       0.443000
     95 HO5         37.9340    79.9910    22.4750 ho         1 PID       0.441000
     96 C30         33.4360    83.1740    22.1450 c          1 PID       0.596100
@<TRIPOS>BOND
     1     1     2 1   
     2     1     6 1   
     3     1    31 1   
     4     1    39 1   
     5     2     3 1   
     6     2    46 1   
     7     2    47 1   
     8     3     4 1   
     9     3    40 1   
    10     3    48 1   
    11     4     5 1   
    12     4    49 1   
    13     4    50 1   
    14     5     6 1   
    15     5    32 1   
    16     5    33 1   
    17     6     7 1   
    18     6    39 1   
    19     7     8 2   
    20     7    51 1   
    21     8     9 1   
    22     8    52 1   
    23     9    10 1   
    24     9    11 2   
    25    10    41 2   
    26    10    42 1   
    27    11    12 1   
    28    11    53 1   
    29    12    13 2   
    30    12    42 1   
    31    13    14 1   
    32    13    54 1   
    33    14    15 2   
    34    14    34 1   
    35    15    16 1   
    36    15    55 1   
    37    16    17 2   
    38    16    56 1   
    39    17    18 1   
    40    17    57 1   
    41    18    19 2   
    42    18    58 1   
    43    19    20 1   
    44    19    59 1   
    45    20    21 2   
    46    20    60 1   
    47    21    22 1   
    48    21    35 1   
    49    22    23 2   
    50    22    61 1   
    51    23    24 2   
    52    24    25 1   
    53    24    29 1   
    54    25    26 1   
    55    25    36 1   
    56    25    37 1   
    57    26    27 1   
    58    26    62 1   
    59    26    63 1   
    60    27    28 1   
    61    27    44 1   
    62    27    64 1   
    63    28    29 1   
    64    28    65 1   
    65    28    66 1   
    66    29    38 1   
    67    29    43 1   
    68    30    67 1   
    69    30    68 1   
    70    30    69 1   
    71    30    96 1   
    72    31    70 1   
    73    31    71 1   
    74    31    72 1   
    75    32    73 1   
    76    32    74 1   
    77    32    75 1   
    78    33    76 1   
    79    33    77 1   
    80    33    78 1   
    81    34    79 1   
    82    34    80 1   
    83    34    81 1   
    84    35    82 1   
    85    35    83 1   
    86    35    84 1   
    87    36    85 1   
    88    36    86 1   
    89    36    87 1   
    90    37    88 1   
    91    37    89 1   
    92    37    90 1   
    93    38    91 1   
    94    38    92 1   
    95    38    93 1   
    96    40    94 1   
    97    43    95 1   
    98    44    96 1   
    99    45    96 2   
@<TRIPOS>SUBSTRUCTURE
     1 PID         1 TEMP              0 ****  ****    0 ROOT
