@<TRIPOS>MOLECULE
PIG
   24    23     1     0     0
SMALL
No Charge or Current Charge


@<TRIPOS>ATOM
      1 O1           0.7020     0.9990     4.0210 oh         1 PIG      -0.710000
      2 C1           0.9410    -0.3260     3.5050 c3         1 PIG       0.164100
      3 C2          -0.2650    -0.8460     2.6760 c3         1 PIG       0.160600
      4 O2          -0.3770    -0.0740     1.4630 os         1 PIG      -0.434500
      5 C3          -1.4730    -0.4600     0.6100 c3         1 PIG       0.162600
      6 C4          -1.4720     0.4340    -0.6540 c3         1 PIG       0.162600
      7 O3          -0.3650     0.0570    -1.4980 os         1 PIG      -0.434500
      8 C5          -0.2490     0.8300    -2.7100 c3         1 PIG       0.160600
      9 C6           0.9680     0.3210    -3.5290 c3         1 PIG       0.164100
     10 O4           0.7450    -1.0060    -4.0460 oh         1 PIG      -0.710000
     11 HO1          1.5280     1.2800     4.4790 ho         1 PIG       0.500000
     12 H11          1.8390    -0.3370     2.8740 h1         1 PIG       0.025200
     13 H12          1.1160    -1.0230     4.3360 h1         1 PIG       0.025200
     14 H21         -0.1000    -1.9050     2.4380 h1         1 PIG       0.025700
     15 H22         -1.1820    -0.7710     3.2750 h1         1 PIG       0.025700
     16 H31         -1.3900    -1.5150     0.3140 h1         1 PIG       0.027950
     17 H32         -2.4280    -0.3280     1.1350 h1         1 PIG       0.027950
     18 H41         -2.4210     0.2930    -1.1880 h1         1 PIG       0.027950
     19 H42         -1.4010     1.4880    -0.3570 h1         1 PIG       0.027950
     20 H51         -1.1600     0.7470    -3.3170 h1         1 PIG       0.025700
     21 H52         -0.0960     1.8910    -2.4700 h1         1 PIG       0.025700
     22 H61          1.1440     1.0200    -4.3570 h1         1 PIG       0.025200
     23 H62          1.8610     0.3400    -2.8890 h1         1 PIG       0.025200
     24 HO4          1.5770    -1.2800    -4.4980 ho         1 PIG       0.500000
@<TRIPOS>BOND
     1     1     2 1   
     2     1    11 1   
     3     2     3 1   
     4     2    12 1   
     5     2    13 1   
     6     3     4 1   
     7     3    14 1   
     8     3    15 1   
     9     4     5 1   
    10     5     6 1   
    11     5    16 1   
    12     5    17 1   
    13     6     7 1   
    14     6    18 1   
    15     6    19 1   
    16     7     8 1   
    17     8     9 1   
    18     8    20 1   
    19     8    21 1   
    20     9    10 1   
    21     9    22 1   
    22     9    23 1   
    23    10    24 1   
@<TRIPOS>SUBSTRUCTURE
     1 PIG         1 TEMP              0 ****  ****    0 ROOT
