@<TRIPOS>MOLECULE
PIG
   24    23     1     0     0
SMALL
abcg2


@<TRIPOS>ATOM
      1 O1           0.8750     0.9440     3.7920 oh         1 PIG      -0.710000
      2 C1           0.9710    -0.3850     3.3340 c3         1 PIG       0.164100
      3 C2          -0.2810    -0.7600     2.5850 c3         1 PIG       0.160600
      4 O2          -0.3860    -0.0060     1.4080 os         1 PIG      -0.434500
      5 C3          -1.4750    -0.3870     0.6110 c3         1 PIG       0.162600
      6 C4          -1.4800     0.4120    -0.6660 c3         1 PIG       0.162600
      7 O3          -0.3370     0.1020    -1.4120 os         1 PIG      -0.434500
      8 C5          -0.2870     0.7620    -2.6450 c3         1 PIG       0.160600
      9 C6           0.9690     0.3700    -3.3840 c3         1 PIG       0.164100
     10 O4           0.8850    -0.9790    -3.7620 oh         1 PIG      -0.710000
     11 HO1          1.6600     1.1330     4.3110 ho         1 PIG       0.500000
     12 H11          1.8400    -0.5290     2.6790 h1         1 PIG       0.025200
     13 H12          1.0770    -1.0950     4.1630 h1         1 PIG       0.025200
     14 H21         -0.2270    -1.8350     2.3610 h1         1 PIG       0.025700
     15 H22         -1.1610    -0.6180     3.2310 h1         1 PIG       0.025700
     16 H31         -1.4340    -1.4600     0.3730 h1         1 PIG       0.027950
     17 H32         -2.4300    -0.2150     1.1280 h1         1 PIG       0.027950
     18 H41         -2.4000     0.1660    -1.2160 h1         1 PIG       0.027950
     19 H42         -1.5300     1.4880    -0.4360 h1         1 PIG       0.027950
     20 H51         -1.1670     0.5240    -3.2620 h1         1 PIG       0.025700
     21 H52         -0.2810     1.8540    -2.5100 h1         1 PIG       0.025700
     22 H61          1.0620     1.0370    -4.2530 h1         1 PIG       0.025200
     23 H62          1.8350     0.5680    -2.7370 h1         1 PIG       0.025200
     24 HO4          1.7430    -1.2640    -4.0800 ho         1 PIG       0.500000
@<TRIPOS>BOND
     1     1     2 1   
     2     1    11 1   
     3     2     3 1   
     4     2    12 1   
     5     2    13 1   
     6     3     4 1   
     7     3    14 1   
     8     3    15 1   
     9     4     5 1   
    10     5     6 1   
    11     5    16 1   
    12     5    17 1   
    13     6     7 1   
    14     6    18 1   
    15     6    19 1   
    16     7     8 1   
    17     8     9 1   
    18     8    20 1   
    19     8    21 1   
    20     9    10 1   
    21     9    22 1   
    22     9    23 1   
    23    10    24 1   
@<TRIPOS>SUBSTRUCTURE
     1 PIG         1 TEMP              0 ****  ****    0 ROOT
