@<TRIPOS>MOLECULE
PIH
   12    12     1     0     0
SMALL
abcg2


@<TRIPOS>ATOM
      1 C1           1.1980     0.0350     1.4310 ca         1 PIH      -0.080000
      2 C2           1.1870     0.0280     2.8200 ca         1 PIH      -0.112000
      3 C3          -0.0150     0.0090     3.5140 ca         1 PIH      -0.095000
      4 C4          -1.2150    -0.0040     2.8170 ca         1 PIH      -0.112000
      5 C5          -1.2220     0.0030     1.4280 ca         1 PIH      -0.080000
      6 C6          -0.0120     0.0220     0.7500 ca         1 PIH       0.197000
      7 I6          -0.0100     0.0310    -1.3560 i          1 PIH      -0.319000
      8 H1           2.1390     0.0500     0.8990 ha         1 PIH       0.126000
      9 H2           2.1270     0.0370     3.3570 ha         1 PIH       0.117000
     10 H3          -0.0160     0.0030     4.5960 ha         1 PIH       0.116000
     11 H4          -2.1560    -0.0190     3.3520 ha         1 PIH       0.117000
     12 H5          -2.1630    -0.0060     0.8940 ha         1 PIH       0.126000
@<TRIPOS>BOND
     1     1     2 ar  
     2     1     6 ar  
     3     1     8 1   
     4     2     3 ar  
     5     2     9 1   
     6     3     4 ar  
     7     3    10 1   
     8     4     5 ar  
     9     4    11 1   
    10     5     6 ar  
    11     5    12 1   
    12     6     7 1   
@<TRIPOS>SUBSTRUCTURE
     1 PIH         1 TEMP              0 ****  ****    0 ROOT
