@<TRIPOS>MOLECULE
PIH
   12    12     1     0     0
SMALL
No Charge or Current Charge


@<TRIPOS>ATOM
      1 C1           1.2050     0.0350     1.4300 ca         1 PIH      -0.080000
      2 C2           1.2040     0.0280     2.8370 ca         1 PIH      -0.112000
      3 C3          -0.0150     0.0090     3.5380 ca         1 PIH      -0.095000
      4 C4          -1.2320    -0.0040     2.8340 ca         1 PIH      -0.112000
      5 C5          -1.2300     0.0030     1.4270 ca         1 PIH      -0.080000
      6 C6          -0.0120     0.0220     0.7280 ca         1 PIH       0.197000
      7 I6          -0.0090     0.0330    -1.4380 i          1 PIH      -0.319000
      8 H1           2.1450     0.0500     0.8840 ha         1 PIH       0.126000
      9 H2           2.1460     0.0380     3.3820 ha         1 PIH       0.117000
     10 H3          -0.0160     0.0030     4.6260 ha         1 PIH       0.116000
     11 H4          -2.1750    -0.0190     3.3770 ha         1 PIH       0.117000
     12 H5          -2.1690    -0.0070     0.8790 ha         1 PIH       0.126000
@<TRIPOS>BOND
     1     1     2 ar  
     2     1     6 ar  
     3     1     8 1   
     4     2     3 ar  
     5     2     9 1   
     6     3     4 ar  
     7     3    10 1   
     8     4     5 ar  
     9     4    11 1   
    10     5     6 ar  
    11     5    12 1   
    12     6     7 1   
@<TRIPOS>SUBSTRUCTURE
     1 PIH         1 TEMP              0 ****  ****    0 ROOT
