@<TRIPOS>MOLECULE
PIL
   43    45     1     0     0
SMALL
abcg2


@<TRIPOS>ATOM
      1 CL25         0.6390     2.6000    -3.5250 cl         1 PIL      -0.165000
      2 C24          0.1490     1.1100    -4.2300 ca         1 PIL       0.046000
      3 C23         -0.2960     1.0830    -5.5420 ca         1 PIL       0.361900
      4 N22         -0.7050    -0.0300    -6.1260 nb         1 PIL      -0.658000
      5 C21         -0.6690    -1.1600    -5.4390 ca         1 PIL       0.361900
      6 C19         -0.2200    -1.2250    -4.1280 ca         1 PIL       0.046000
      7 CL20        -0.1190    -2.7510    -3.3500 cl         1 PIL      -0.165000
      8 C18          0.1930    -0.0630    -3.4780 ca         1 PIL       0.015000
      9 N16          0.6560    -0.0670    -2.1690 ns         1 PIL      -0.161000
     10 C15         -0.1410    -0.4390    -1.1150 c          1 PIL       0.628700
     11 O17         -1.3010    -0.7590    -1.2800 o          1 PIL      -0.562100
     12 C14          0.5070    -0.4140     0.2170 ca         1 PIL      -0.156600
     13 C13          1.8810    -0.4540     0.3870 ca         1 PIL      -0.076000
     14 C12          2.4290    -0.4550     1.6650 ca         1 PIL      -0.189000
     15 C9           1.6100    -0.4110     2.7820 ca         1 PIL       0.137100
     16 O10          2.0400    -0.4080     4.0480 os         1 PIL      -0.315100
     17 C11          3.4340    -0.4440     4.2890 c3         1 PIL       0.143900
     18 C2           0.2050    -0.3740     2.6170 ca         1 PIL       0.115100
     19 C1          -0.3260    -0.3840     1.3430 ca         1 PIL      -0.125000
     20 O3          -0.5010    -0.3530     3.7570 os         1 PIL      -0.328100
     21 C4          -1.9160    -0.1600     3.7180 c5         1 PIL       0.165300
     22 C5          -2.2680     1.2940     3.4200 c5         1 PIL      -0.093900
     23 C6          -1.9780     2.0390     4.7340 c5         1 PIL      -0.073900
     24 C7          -2.0330     0.9690     5.8500 c5         1 PIL      -0.073900
     25 C8          -2.4100    -0.3400     5.1440 c5         1 PIL      -0.093900
     26 H23         -0.3300     1.9970    -6.1220 h4         1 PIL       0.039100
     27 H21         -0.9930    -2.0630    -5.9420 h4         1 PIL       0.039100
     28 H16          1.4840     0.4770    -1.9780 hn         1 PIL       0.168000
     29 H13          2.5570    -0.5140    -0.4560 ha         1 PIL       0.115000
     30 H12          3.5040    -0.4970     1.7680 ha         1 PIL       0.123000
     31 H111         3.5590    -0.4320     5.3680 h1         1 PIL       0.042367
     32 H112         3.8930    -1.3530     3.8900 h1         1 PIL       0.042367
     33 H113         3.9440     0.4250     3.8650 h1         1 PIL       0.042367
     34 H1          -1.3960    -0.3630     1.1960 ha         1 PIL       0.142000
     35 H4          -2.3750    -0.8720     3.0240 h1         1 PIL       0.056700
     36 H51         -1.7310     1.7080     2.5650 hc         1 PIL       0.054700
     37 H52         -3.3320     1.3380     3.1760 hc         1 PIL       0.054700
     38 H61         -2.7000     2.8390     4.8970 hc         1 PIL       0.045450
     39 H62         -0.9940     2.5070     4.7000 hc         1 PIL       0.045450
     40 H71         -2.7520     1.2220     6.6300 hc         1 PIL       0.045450
     41 H72         -1.0620     0.8750     6.3360 hc         1 PIL       0.045450
     42 H81         -3.4950    -0.4610     5.1100 hc         1 PIL       0.054700
     43 H82         -2.0020    -1.2320     5.6220 hc         1 PIL       0.054700
@<TRIPOS>BOND
     1     1     2 1   
     2     2     3 ar  
     3     2     8 ar  
     4     3     4 ar  
     5     3    26 1   
     6     4     5 ar  
     7     5     6 ar  
     8     5    27 1   
     9     6     7 1   
    10     6     8 ar  
    11     8     9 1   
    12     9    10 1   
    13     9    28 1   
    14    10    11 2   
    15    10    12 1   
    16    12    13 ar  
    17    12    19 ar  
    18    13    14 ar  
    19    13    29 1   
    20    14    15 ar  
    21    14    30 1   
    22    15    16 1   
    23    15    18 ar  
    24    16    17 1   
    25    17    31 1   
    26    17    32 1   
    27    17    33 1   
    28    18    19 ar  
    29    18    20 1   
    30    19    34 1   
    31    20    21 1   
    32    21    22 1   
    33    21    25 1   
    34    21    35 1   
    35    22    23 1   
    36    22    36 1   
    37    22    37 1   
    38    23    24 1   
    39    23    38 1   
    40    23    39 1   
    41    24    25 1   
    42    24    40 1   
    43    24    41 1   
    44    25    42 1   
    45    25    43 1   
@<TRIPOS>SUBSTRUCTURE
     1 PIL         1 TEMP              0 ****  ****    0 ROOT
