@<TRIPOS>MOLECULE
PIL
   43    45     1     0     0
SMALL
No Charge or Current Charge


@<TRIPOS>ATOM
      1 Cl25         0.9500     2.3640    -3.8950 cl         1 PIL      -0.165000
      2 C24          0.3720     0.8400    -4.5790 ca         1 PIL       0.046000
      3 C23          0.1130     0.7430    -5.9610 ca         1 PIL       0.361900
      4 N22         -0.3320    -0.3910    -6.5570 nb         1 PIL      -0.658000
      5 C21         -0.5230    -1.4770    -5.7660 ca         1 PIL       0.361900
      6 C19         -0.2940    -1.4760    -4.3740 ca         1 PIL       0.046000
      7 Cl20        -0.4920    -2.9840    -3.4710 cl         1 PIL      -0.165000
      8 C18          0.1490    -0.2830    -3.7550 ca         1 PIL       0.015000
      9 N16          0.4060    -0.1910    -2.3630 ns         1 PIL      -0.161000
     10 C15         -0.4220    -0.4810    -1.2910 c          1 PIL       0.628700
     11 O17         -1.5940    -0.8090    -1.4460 o          1 PIL      -0.562100
     12 C14          0.1900    -0.3380     0.0930 ca         1 PIL      -0.156600
     13 C13          1.5350     0.0610     0.2820 ca         1 PIL      -0.076000
     14 C12          2.0780     0.1660     1.5740 ca         1 PIL      -0.189000
     15 C9           1.2880    -0.1150     2.7090 ca         1 PIL       0.137100
     16 O10          1.7950    -0.0260     3.9950 os         1 PIL      -0.315100
     17 C11          3.1490     0.3730     4.2660 c3         1 PIL       0.143900
     18 C2          -0.0640    -0.4870     2.5360 ca         1 PIL       0.115100
     19 C1          -0.5970    -0.6170     1.2350 ca         1 PIL      -0.125000
     20 O3          -0.8380    -0.7770     3.6480 os         1 PIL      -0.328100
     21 C4          -1.9950     0.1100     3.7080 c5         1 PIL       0.165300
     22 C5          -1.5590     1.5450     4.1200 c5         1 PIL      -0.093900
     23 C6          -1.1300     1.3880     5.6110 c5         1 PIL      -0.073900
     24 C7          -1.9210     0.1460     6.1380 c5         1 PIL      -0.073900
     25 C8          -2.8320    -0.2840     4.9500 c5         1 PIL      -0.093900
     26 H23          0.2680     1.6020    -6.6130 h4         1 PIL       0.039100
     27 H21         -0.8570    -2.3840    -6.2680 h4         1 PIL       0.039100
     28 H16          1.3260     0.1510    -2.1210 hn         1 PIL       0.168000
     29 H13          2.1820     0.2860    -0.5630 ha         1 PIL       0.115000
     30 H12          3.1180     0.4640     1.6720 ha         1 PIL       0.123000
     31 H111         3.3340     0.3790     5.3470 h1         1 PIL       0.042367
     32 H112         3.8610    -0.3230     3.8030 h1         1 PIL       0.042367
     33 H113         3.3420     1.3830     3.8830 h1         1 PIL       0.042367
     34 H1          -1.6230    -0.9530     1.1110 ha         1 PIL       0.142000
     35 H4          -2.5830     0.0730     2.7820 h1         1 PIL       0.056700
     36 H51         -0.7570     1.9520     3.4940 hc         1 PIL       0.054700
     37 H52         -2.4030     2.2390     4.0310 hc         1 PIL       0.054700
     38 H61         -1.3540     2.2920     6.1880 hc         1 PIL       0.045450
     39 H62         -0.0510     1.2210     5.6970 hc         1 PIL       0.045450
     40 H71         -2.5080     0.3800     7.0340 hc         1 PIL       0.045450
     41 H72         -1.2320    -0.6600     6.4160 hc         1 PIL       0.045450
     42 H81         -3.7850     0.2570     4.9650 hc         1 PIL       0.054700
     43 H82         -3.0700    -1.3540     4.9720 hc         1 PIL       0.054700
@<TRIPOS>BOND
     1     1     2 1   
     2     2     3 ar  
     3     2     8 ar  
     4     3     4 ar  
     5     3    26 1   
     6     4     5 ar  
     7     5     6 ar  
     8     5    27 1   
     9     6     7 1   
    10     6     8 ar  
    11     8     9 1   
    12     9    10 1   
    13     9    28 1   
    14    10    11 2   
    15    10    12 1   
    16    12    13 ar  
    17    12    19 ar  
    18    13    14 ar  
    19    13    29 1   
    20    14    15 ar  
    21    14    30 1   
    22    15    16 1   
    23    15    18 ar  
    24    16    17 1   
    25    17    31 1   
    26    17    32 1   
    27    17    33 1   
    28    18    19 ar  
    29    18    20 1   
    30    19    34 1   
    31    20    21 1   
    32    21    22 1   
    33    21    25 1   
    34    21    35 1   
    35    22    23 1   
    36    22    36 1   
    37    22    37 1   
    38    23    24 1   
    39    23    38 1   
    40    23    39 1   
    41    24    25 1   
    42    24    40 1   
    43    24    41 1   
    44    25    42 1   
    45    25    43 1   
@<TRIPOS>SUBSTRUCTURE
     1 PIL         1 TEMP              0 ****  ****    0 ROOT
