@<TRIPOS>MOLECULE
PIM
   19    20     1     0     0
SMALL
bcc


@<TRIPOS>ATOM
      1 N1          -0.9920     0.2410     1.7980 na         1 PIM      -0.293900
      2 C2          -0.5760     0.1290     3.0730 cc         1 PIM       0.392400
      3 N3           0.6950    -0.1820     3.1380 nd         1 PIM      -0.672000
      4 C4           1.1130    -0.2660     1.8450 cd         1 PIM       0.315200
      5 C5           0.0780    -0.0030     0.9800 cc         1 PIM      -0.174600
      6 C6           0.0170     0.0150    -0.4760 ca         1 PIM      -0.001000
      7 C7           1.1920     0.1720    -1.2180 ca         1 PIM      -0.123000
      8 C8           1.1580     0.1740    -2.6030 ca         1 PIM      -0.123000
      9 C9          -0.0500     0.0310    -3.2760 ca         1 PIM      -0.126000
     10 C10         -1.2220    -0.1200    -2.5490 ca         1 PIM      -0.123000
     11 C11         -1.1900    -0.1340    -1.1620 ca         1 PIM      -0.123000
     12 HN1         -1.9210     0.5090     1.5110 hn         1 PIM       0.301700
     13 H2          -1.2370     0.2860     3.9110 h5         1 PIM       0.055100
     14 H4           2.1290    -0.5300     1.5910 h4         1 PIM       0.038100
     15 H7           2.1380     0.3080    -0.7090 ha         1 PIM       0.129000
     16 H8           2.0780     0.3010    -3.1590 ha         1 PIM       0.132000
     17 H9          -0.0760     0.0390    -4.3580 ha         1 PIM       0.133000
     18 H10         -2.1680    -0.2380    -3.0610 ha         1 PIM       0.132000
     19 H11         -2.1170    -0.2800    -0.6200 ha         1 PIM       0.129000
@<TRIPOS>BOND
     1     1     2 1   
     2     1     5 1   
     3     1    12 1   
     4     2     3 2   
     5     2    13 1   
     6     3     4 1   
     7     4     5 2   
     8     4    14 1   
     9     5     6 1   
    10     6     7 ar  
    11     6    11 ar  
    12     7     8 ar  
    13     7    15 1   
    14     8     9 ar  
    15     8    16 1   
    16     9    10 ar  
    17     9    17 1   
    18    10    11 ar  
    19    10    18 1   
    20    11    19 1   
@<TRIPOS>SUBSTRUCTURE
     1 PIM         1 TEMP              0 ****  ****    0 ROOT
