@<TRIPOS>MOLECULE
PIM
   19    20     1     0     0
SMALL
No Charge or Current Charge


@<TRIPOS>ATOM
      1 N1          -1.0700     0.0390     1.8570 na         1 PIM      -0.293500
      2 C2          -0.5710     0.0440     3.1370 cc         1 PIM       0.392400
      3 N3           0.7570     0.0390     3.1220 nd         1 PIM      -0.672000
      4 C4           1.1300     0.0300     1.7900 cd         1 PIM       0.249900
      5 C5           0.0060     0.0300     0.9980 cc         1 PIM      -0.160000
      6 C6           0.0100     0.0230    -0.4710 ca         1 PIM      -0.001000
      7 C7           1.2160     0.0140    -1.2070 ca         1 PIM      -0.105000
      8 C8           1.1970     0.0070    -2.6130 ca         1 PIM      -0.105000
      9 C9          -0.0260     0.0080    -3.3020 ca         1 PIM      -0.108000
     10 C10         -1.2310     0.0160    -2.5830 ca         1 PIM      -0.105000
     11 C11         -1.2130     0.0230    -1.1770 ca         1 PIM      -0.105000
     12 HN1         -2.0530     0.0410     1.6140 hn         1 PIM       0.352000
     13 H2          -1.2090     0.0500     4.0140 h5         1 PIM       0.055100
     14 H4           2.1720     0.0250     1.4950 h4         1 PIM       0.038100
     15 H7           2.1770     0.0140    -0.7030 ha         1 PIM       0.111000
     16 H8           2.1330     0.0010    -3.1690 ha         1 PIM       0.114000
     17 H9          -0.0390     0.0020    -4.3900 ha         1 PIM       0.115000
     18 H10         -2.1800     0.0160    -3.1140 ha         1 PIM       0.114000
     19 H11         -2.1580     0.0290    -0.6410 ha         1 PIM       0.111000
@<TRIPOS>BOND
     1     1     2 1   
     2     1     5 1   
     3     1    12 1   
     4     2     3 2   
     5     2    13 1   
     6     3     4 1   
     7     4     5 2   
     8     4    14 1   
     9     5     6 1   
    10     6     7 ar  
    11     6    11 ar  
    12     7     8 ar  
    13     7    15 1   
    14     8     9 ar  
    15     8    16 1   
    16     9    10 ar  
    17     9    17 1   
    18    10    11 ar  
    19    10    18 1   
    20    11    19 1   
@<TRIPOS>SUBSTRUCTURE
     1 PIM         1 TEMP              0 ****  ****    0 ROOT
