@<TRIPOS>MOLECULE
PIN
   34    34     1     0     0
SMALL
No Charge or Current Charge


@<TRIPOS>ATOM
      1 C1           0.4140     0.4570     3.7330 c3         1 PIN      -0.353900
      2 C2          -0.7100    -0.1830     2.9080 c3         1 PIN       0.204800
      3 N1          -0.6880     0.2200     1.4830 n3         1 PIN      -0.717600
      4 C3          -1.9050    -0.2450     0.7500 c6         1 PIN       0.165800
      5 C4           0.5380    -0.2240     0.7450 c6         1 PIN       0.165800
      6 C5           0.3980    -0.4690    -3.7450 c3         1 PIN      -0.353900
      7 N2          -0.6940    -0.2460    -1.4890 n3         1 PIN      -0.717600
      8 C7           0.5300     0.2140    -0.7570 c6         1 PIN       0.165800
      9 C8          -1.9120     0.2030    -0.7480 c6         1 PIN       0.165800
     10 S1           0.2820     0.0320     5.4760 s6         1 PIN       1.324100
     11 S2           0.2500    -0.0450    -5.4870 s6         1 PIN       1.324100
     12 O1           0.3660    -1.4350     5.4920 o          1 PIN      -0.705200
     13 O2          -1.0240     0.5740     5.8800 o          1 PIN      -0.705200
     14 O3           1.4350     0.7130     6.0830 o          1 PIN      -0.705200
     15 O4          -1.0500    -0.6040    -5.8830 o          1 PIN      -0.705200
     16 O5           0.3150     1.4230    -5.5030 o          1 PIN      -0.705200
     17 O6           1.4090    -0.7110    -6.1000 o          1 PIN      -0.705200
     18 H11          0.3670     1.5490     3.6700 h1         1 PIN       0.070200
     19 H12          1.3960     0.1060     3.4070 h1         1 PIN       0.070200
     20 H21         -0.6410    -1.2770     2.9870 h1         1 PIN       0.037200
     21 H22         -1.6730     0.1120     3.3480 h1         1 PIN       0.037200
     22 H31         -1.9700    -1.3430     0.7870 h1         1 PIN       0.027950
     23 H32         -2.8110     0.1460     1.2350 h1         1 PIN       0.027950
     24 H41          1.4430     0.1900     1.2110 h1         1 PIN       0.027950
     25 H42          0.6260    -1.3200     0.7890 h1         1 PIN       0.027950
     26 H1'1         1.3780    -0.1040    -3.4240 h1         1 PIN       0.070200
     27 H1'2         0.3660    -1.5600    -3.6820 h1         1 PIN       0.070200
     28 H2'1        -1.6900    -0.1510    -3.3480 h1         1 PIN       0.037200
     29 H2'2        -0.6750     1.2520    -2.9930 h1         1 PIN       0.037200
     30 H3'1         1.4380    -0.1880    -1.2290 h1         1 PIN       0.027950
     31 H3'2         0.6040     1.3110    -0.8020 h1         1 PIN       0.027950
     32 H4'1        -2.8160    -0.2000    -1.2280 h1         1 PIN       0.027950
     33 H4'2        -1.9920     1.3000    -0.7850 h1         1 PIN       0.027950
     34 C6          -0.7290     0.1570    -2.9130 c3         1 PIN       0.204800
@<TRIPOS>BOND
     1     1     2 1   
     2     1    10 1   
     3     1    18 1   
     4     1    19 1   
     5     2     3 1   
     6     2    20 1   
     7     2    21 1   
     8     3     4 1   
     9     3     5 1   
    10     4     9 1   
    11     4    22 1   
    12     4    23 1   
    13     5     8 1   
    14     5    24 1   
    15     5    25 1   
    16     6    11 1   
    17     6    26 1   
    18     6    27 1   
    19     6    34 1   
    20     7     8 1   
    21     7     9 1   
    22     7    34 1   
    23     8    30 1   
    24     8    31 1   
    25     9    32 1   
    26     9    33 1   
    27    10    12 1   
    28    10    13 1   
    29    10    14 1   
    30    11    15 1   
    31    11    16 1   
    32    11    17 1   
    33    28    34 1   
    34    29    34 1   
@<TRIPOS>SUBSTRUCTURE
     1 PIN         1 TEMP              0 ****  ****    0 ROOT
