@<TRIPOS>MOLECULE
PIN
   34    34     1     0     0
SMALL
bcc


@<TRIPOS>ATOM
      1 C1           0.3820     0.4520     3.6480 c3         1 PIN      -0.243100
      2 C2          -0.6730    -0.2440     2.8040 c3         1 PIN       0.204800
      3 N1          -0.6490     0.1860     1.4180 n3         1 PIN      -0.717600
      4 C3          -1.8340    -0.2720     0.7160 c6         1 PIN       0.165800
      5 C4           0.5390    -0.2530     0.7110 c6         1 PIN       0.165800
      6 C5           0.3670    -0.4630    -3.6600 c3         1 PIN      -0.243100
      7 N2          -0.6550    -0.2130    -1.4240 n3         1 PIN      -0.717600
      8 C7           0.5310     0.2400    -0.7240 c6         1 PIN       0.165800
      9 C8          -1.8420     0.2280    -0.7140 c6         1 PIN       0.165800
     10 S1           0.2170     0.0710     5.4020 s6         1 PIN       1.213300
     11 S2           0.1870    -0.0820    -5.4130 s6         1 PIN       1.213300
     12 O1           0.3620    -1.3950     5.5090 o          1 PIN      -0.705200
     13 O2          -1.1250     0.5460     5.7980 o          1 PIN      -0.705200
     14 O3           1.3120     0.8090     6.0630 o          1 PIN      -0.705200
     15 O4          -1.1510    -0.5710    -5.8020 o          1 PIN      -0.705200
     16 O5           0.3160     1.3860    -5.5190 o          1 PIN      -0.705200
     17 O6           1.2860    -0.8080    -6.0800 o          1 PIN      -0.705200
     18 H11          0.3030     1.5360     3.5390 h1         1 PIN       0.070200
     19 H12          1.3950     0.1580     3.3670 h1         1 PIN       0.070200
     20 H21         -0.5560    -1.3360     2.8950 h1         1 PIN       0.037200
     21 H22         -1.6570     0.0050     3.2080 h1         1 PIN       0.037200
     22 H31         -1.9090    -1.3730     0.7170 h1         1 PIN       0.027950
     23 H32         -2.7210     0.1090     1.2280 h1         1 PIN       0.027950
     24 H41          1.4290     0.1460     1.1990 h1         1 PIN       0.027950
     25 H42          0.6310    -1.3530     0.7190 h1         1 PIN       0.027950
     26 H1'1         1.3770    -0.1560    -3.3840 h1         1 PIN       0.070200
     27 H1'2         0.3020    -1.5470    -3.5510 h1         1 PIN       0.070200
     28 H2'1        -1.6760    -0.0430    -3.2080 h1         1 PIN       0.037200
     29 H2'2        -0.5910     1.3120    -2.9000 h1         1 PIN       0.037200
     30 H3'1         1.4240    -0.1470    -1.2170 h1         1 PIN       0.027950
     31 H3'2         0.6100     1.3420    -0.7330 h1         1 PIN       0.027950
     32 H4'1        -2.7270    -0.1640    -1.2200 h1         1 PIN       0.027950
     33 H4'2        -1.9320     1.3280    -0.7130 h1         1 PIN       0.027950
     34 C6          -0.6930     0.2180    -2.8090 c3         1 PIN       0.204800
@<TRIPOS>BOND
     1     1     2 1   
     2     1    10 1   
     3     1    18 1   
     4     1    19 1   
     5     2     3 1   
     6     2    20 1   
     7     2    21 1   
     8     3     4 1   
     9     3     5 1   
    10     4     9 1   
    11     4    22 1   
    12     4    23 1   
    13     5     8 1   
    14     5    24 1   
    15     5    25 1   
    16     6    11 1   
    17     6    26 1   
    18     6    27 1   
    19     6    34 1   
    20     7     8 1   
    21     7     9 1   
    22     7    34 1   
    23     8    30 1   
    24     8    31 1   
    25     9    32 1   
    26     9    33 1   
    27    10    12 1   
    28    10    13 1   
    29    10    14 1   
    30    11    15 1   
    31    11    16 1   
    32    11    17 1   
    33    28    34 1   
    34    29    34 1   
@<TRIPOS>SUBSTRUCTURE
     1 PIN         1 TEMP              0 ****  ****    0 ROOT
