@<TRIPOS>MOLECULE
PIP
   17    17     1     0     0
SMALL
bcc


@<TRIPOS>ATOM
      1 N1           0.0220     0.2580     1.3630 n7         1 PIP      -0.808200
      2 C2          -1.1800    -0.2480     0.7230 c6         1 PIP       0.160300
      3 C3          -1.2360     0.2220    -0.7230 c6         1 PIP      -0.075400
      4 C4           0.0200    -0.2070    -1.4760 c6         1 PIP      -0.074400
      5 C5           1.2740     0.2350    -0.7280 c6         1 PIP      -0.075400
      6 C6           1.2270    -0.2370     0.7190 c6         1 PIP       0.160300
      7 HN1          0.0250    -0.0130     2.3370 hn         1 PIP       0.352800
      8 H21         -2.0510     0.1160     1.2720 h1         1 PIP       0.026200
      9 H22         -1.2320    -1.3500     0.7400 h1         1 PIP       0.026200
     10 H31         -1.3250     1.3130    -0.7440 hc         1 PIP       0.044700
     11 H32         -2.1300    -0.1790    -1.2070 hc         1 PIP       0.044700
     12 H41          0.0260    -1.2980    -1.5700 hc         1 PIP       0.036700
     13 H42          0.0160     0.1930    -2.4920 hc         1 PIP       0.036700
     14 H51          2.1710    -0.1580    -1.2140 hc         1 PIP       0.044700
     15 H52          1.3530     1.3260    -0.7480 hc         1 PIP       0.044700
     16 H61          2.0970     0.1340     1.2660 h1         1 PIP       0.026200
     17 H62          1.2880    -1.3390     0.7340 h1         1 PIP       0.026200
@<TRIPOS>BOND
     1     1     2 1   
     2     1     6 1   
     3     1     7 1   
     4     2     3 1   
     5     2     8 1   
     6     2     9 1   
     7     3     4 1   
     8     3    10 1   
     9     3    11 1   
    10     4     5 1   
    11     4    12 1   
    12     4    13 1   
    13     5     6 1   
    14     5    14 1   
    15     5    15 1   
    16     6    16 1   
    17     6    17 1   
@<TRIPOS>SUBSTRUCTURE
     1 PIP         1 TEMP              0 ****  ****    0 ROOT
