@<TRIPOS>MOLECULE
PIP
   17    17     1     0     0
SMALL
No Charge or Current Charge


@<TRIPOS>ATOM
      1 N1           0.0220     0.2300     1.4180 n7         1 PIP      -0.863400
      2 C2          -1.2120    -0.2350     0.7400 c6         1 PIP       0.160300
      3 C3          -1.2530     0.2290    -0.7380 c6         1 PIP      -0.075400
      4 C4           0.0200    -0.2200    -1.4980 c6         1 PIP      -0.074400
      5 C5           1.2910     0.2410    -0.7420 c6         1 PIP      -0.075400
      6 C6           1.2590    -0.2240     0.7360 c6         1 PIP       0.160300
      7 HN1          0.0260    -0.1300     2.3820 hn         1 PIP       0.408000
      8 H21         -2.0920     0.1530     1.2730 h1         1 PIP       0.026200
      9 H22         -1.2570    -1.3340     0.7790 h1         1 PIP       0.026200
     10 H31         -1.3410     1.3240    -0.7770 hc         1 PIP       0.044700
     11 H32         -2.1470    -0.1750    -1.2310 hc         1 PIP       0.044700
     12 H41          0.0250    -1.3140    -1.5960 hc         1 PIP       0.036700
     13 H42          0.0160     0.1890    -2.5170 hc         1 PIP       0.036700
     14 H51          2.1870    -0.1550    -1.2380 hc         1 PIP       0.044700
     15 H52          1.3690     1.3360    -0.7810 hc         1 PIP       0.044700
     16 H61          2.1370     0.1730     1.2660 h1         1 PIP       0.026200
     17 H62          1.3140    -1.3220     0.7750 h1         1 PIP       0.026200
@<TRIPOS>BOND
     1     1     2 1   
     2     1     6 1   
     3     1     7 1   
     4     2     3 1   
     5     2     8 1   
     6     2     9 1   
     7     3     4 1   
     8     3    10 1   
     9     3    11 1   
    10     4     5 1   
    11     4    12 1   
    12     4    13 1   
    13     5     6 1   
    14     5    14 1   
    15     5    15 1   
    16     6    16 1   
    17     6    17 1   
@<TRIPOS>SUBSTRUCTURE
     1 PIP         1 TEMP              0 ****  ****    0 ROOT
