@<TRIPOS>MOLECULE
PIQ
   29    31     1     0     0
SMALL
abcg2


@<TRIPOS>ATOM
      1 N            0.3120    -0.0160     4.9150 nv         1 PIQ      -1.020200
      2 C2          -0.0100     0.0030     3.6090 cc         1 PIQ       0.657700
      3 N1           0.9450     0.1460     2.6430 na         1 PIQ      -0.212600
      4 C7A          0.2870     0.0410     1.4400 ca         1 PIQ      -0.136200
      5 C7           0.6810     0.1010     0.1270 ca         1 PIQ      -0.058000
      6 C6          -0.3310    -0.0380    -0.8320 cp         1 PIQ      -0.096000
      7 C1          -0.0210    -0.0010    -2.2730 cp         1 PIQ      -0.025000
      8 C8          -0.8800     0.6250    -3.1790 ca         1 PIQ      -0.102500
      9 C3          -0.5900     0.6500    -4.5350 ca         1 PIQ      -0.110000
     10 C4           0.5700     0.0560    -5.0140 ca         1 PIQ      -0.108000
     11 C5           1.4370    -0.5640    -4.1230 ca         1 PIQ      -0.110000
     12 C9           1.1430    -0.5940    -2.7680 ca         1 PIQ      -0.102500
     13 N3          -1.2250    -0.1680     3.1340 nd         1 PIQ      -0.707700
     14 CM           2.3640     0.2990     2.8540 c3         1 PIQ       0.068900
     15 C3A         -1.0690    -0.1500     1.7800 ca         1 PIQ       0.512000
     16 N4          -2.0270    -0.2840     0.8790 nb         1 PIQ      -0.624000
     17 C10         -1.6460    -0.2280    -0.3930 ca         1 PIQ       0.343900
     18 HN1         -0.4540     0.0740     5.5620 hn         1 PIQ       0.486000
     19 HN2          1.1670     0.4190     5.2210 hn         1 PIQ       0.486000
     20 H7           1.7120     0.2660    -0.1650 ha         1 PIQ       0.121000
     21 H2          -1.7760     1.1180    -2.8210 ha         1 PIQ       0.113500
     22 H3          -1.2690     1.1440    -5.2180 ha         1 PIQ       0.113000
     23 H4           0.7990     0.0770    -6.0710 ha         1 PIQ       0.113000
     24 H5           2.3420    -1.0340    -4.4840 ha         1 PIQ       0.113000
     25 H6           1.8180    -1.1030    -2.0900 ha         1 PIQ       0.113500
     26 HM1          2.8130    -0.6230     3.2210 h1         1 PIQ       0.049700
     27 HM2          2.8390     0.5640     1.9130 h1         1 PIQ       0.049700
     28 HM3          2.5670     1.1030     3.5600 h1         1 PIQ       0.049700
     29 H1          -2.4330    -0.3640    -1.1270 h4         1 PIQ       0.023100
@<TRIPOS>BOND
     1     1     2 1   
     2     1    18 1   
     3     1    19 1   
     4     2     3 1   
     5     2    13 2   
     6     3     4 1   
     7     3    14 1   
     8     4     5 ar  
     9     4    15 ar  
    10     5     6 ar  
    11     5    20 1   
    12     6     7 1   
    13     6    17 ar  
    14     7     8 ar  
    15     7    12 ar  
    16     8     9 ar  
    17     8    21 1   
    18     9    10 ar  
    19     9    22 1   
    20    10    11 ar  
    21    10    23 1   
    22    11    12 ar  
    23    11    24 1   
    24    12    25 1   
    25    13    15 1   
    26    14    26 1   
    27    14    27 1   
    28    14    28 1   
    29    15    16 ar  
    30    16    17 ar  
    31    17    29 1   
@<TRIPOS>SUBSTRUCTURE
     1 PIQ         1 TEMP              0 ****  ****    0 ROOT
