@<TRIPOS>MOLECULE
PIQ
   29    31     1     0     0
SMALL
No Charge or Current Charge


@<TRIPOS>ATOM
      1 N            0.2740     0.1000     4.9840 nv         1 PIQ      -1.020200
      2 C2          -0.0090     0.0380     3.6820 cc         1 PIQ       0.657700
      3 N1           0.9380     0.1170     2.6730 na         1 PIQ      -0.212600
      4 C7A          0.2320     0.0330     1.5120 ca         1 PIQ      -0.136200
      5 C7           0.6570     0.0650     0.1790 ca         1 PIQ      -0.058000
      6 C6          -0.3500    -0.0430    -0.8130 cp         1 PIQ      -0.096000
      7 C1          -0.0170    -0.0230    -2.2740 cp         1 PIQ      -0.025000
      8 C8          -0.9170     0.5230    -3.2240 ca         1 PIQ      -0.102500
      9 C3          -0.6040     0.5420    -4.5950 ca         1 PIQ      -0.110000
     10 C4           0.6160     0.0130    -5.0450 ca         1 PIQ      -0.108000
     11 C5           1.5220    -0.5340    -4.1230 ca         1 PIQ      -0.110000
     12 C9           1.2090    -0.5510    -2.7530 ca         1 PIQ      -0.102500
     13 N3          -1.2510    -0.0890     3.2440 nd         1 PIQ      -0.707700
     14 CM           2.4050     0.2400     2.7430 c3         1 PIQ       0.068900
     15 C3A         -1.0950    -0.0920     1.8610 ca         1 PIQ       0.512000
     16 N4          -2.0720    -0.1980     0.9500 nb         1 PIQ      -0.624000
     17 C10         -1.6980    -0.1730    -0.3560 ca         1 PIQ       0.343900
     18 HN1         -0.5200     0.2770     5.5890 hn         1 PIQ       0.486000
     19 HN2          1.1440     0.5470     5.2490 hn         1 PIQ       0.486000
     20 H7           1.7070     0.1820    -0.0780 ha         1 PIQ       0.121000
     21 H2          -1.8620     0.9510    -2.8990 ha         1 PIQ       0.113500
     22 H3          -1.3070     0.9690    -5.3070 ha         1 PIQ       0.113000
     23 H4           0.8580     0.0270    -6.1060 ha         1 PIQ       0.113000
     24 H5           2.4670    -0.9480    -4.4700 ha         1 PIQ       0.113000
     25 H6           1.9210    -0.9930    -2.0600 ha         1 PIQ       0.113500
     26 HM1          2.8680    -0.4330     2.0100 h1         1 PIQ       0.049700
     27 HM2          2.6970     1.2740     2.5210 h1         1 PIQ       0.049700
     28 HM3          2.7610    -0.0310     3.7440 h1         1 PIQ       0.049700
     29 H1          -2.5120    -0.2730    -1.0730 h4         1 PIQ       0.023100
@<TRIPOS>BOND
     1     1     2 1   
     2     1    18 1   
     3     1    19 1   
     4     2     3 1   
     5     2    13 2   
     6     3     4 1   
     7     3    14 1   
     8     4     5 ar  
     9     4    15 ar  
    10     5     6 ar  
    11     5    20 1   
    12     6     7 1   
    13     6    17 ar  
    14     7     8 ar  
    15     7    12 ar  
    16     8     9 ar  
    17     8    21 1   
    18     9    10 ar  
    19     9    22 1   
    20    10    11 ar  
    21    10    23 1   
    22    11    12 ar  
    23    11    24 1   
    24    12    25 1   
    25    13    15 1   
    26    14    26 1   
    27    14    27 1   
    28    14    28 1   
    29    15    16 ar  
    30    16    17 ar  
    31    17    29 1   
@<TRIPOS>SUBSTRUCTURE
     1 PIQ         1 TEMP              0 ****  ****    0 ROOT
