@<TRIPOS>MOLECULE
PIR
   32    33     1     0     0
SMALL
abcg2


@<TRIPOS>ATOM
      1 C1          83.5860    43.5090    51.3760 ca         1 PIR      -0.066500
      2 C2          83.8230    42.2590    50.8040 ca         1 PIR      -0.089300
      3 C3          82.9930    41.2140    51.2100 ca         1 PIR      -0.066500
      4 C4          82.2360    41.3060    52.3690 ca         1 PIR      -0.165500
      5 C5          81.9470    42.5690    52.9130 ca         1 PIR       0.292000
      6 N5          81.1240    42.6530    54.0340 nv         1 PIR      -1.113000
      7 C6          82.6930    43.6600    52.4350 ca         1 PIR      -0.165500
      8 C7          84.9310    41.9660    49.7900 c5         1 PIR       0.231800
      9 C8          85.5470    43.1660    49.0450 c5         1 PIR       0.159300
     10 O2          85.1430    43.1130    47.6740 oh         1 PIR      -0.642000
     11 C9          87.0500    43.1250    49.3090 c5         1 PIR       0.098300
     12 O3          87.6570    42.4640    48.1910 oh         1 PIR      -0.659000
     13 C10         87.1740    42.1850    50.5490 c5         1 PIR       0.160500
     14 N4          86.0520    41.2730    50.4510 n7         1 PIR      -0.852400
     15 C11         87.1490    43.0260    51.8440 c3         1 PIR       0.168600
     16 O5          86.8170    42.2310    52.9710 oh         1 PIR      -0.628000
     17 H1          84.0780    44.4070    51.0260 ha         1 PIR       0.105500
     18 H3          83.0430    40.2790    50.6590 ha         1 PIR       0.105500
     19 H4          81.6770    40.4520    52.7360 ha         1 PIR       0.109500
     20 HN51        80.9040    43.5820    54.3600 hn         1 PIR       0.452500
     21 HN52        81.2860    42.0050    54.7910 hn         1 PIR       0.452500
     22 H6          82.3950    44.6560    52.7510 ha         1 PIR       0.109500
     23 H7          84.4690    41.2830    49.0730 h1         1 PIR       0.073700
     24 H2          85.1180    44.0880    49.4470 h1         1 PIR       0.041700
     25 HO2         85.5990    43.8230    47.2060 ho         1 PIR       0.446000
     26 H8          87.5280    44.0920    49.4760 h1         1 PIR       0.049700
     27 HO3         88.6160    42.4840    48.2910 ho         1 PIR       0.442000
     28 H9          88.1410    41.6840    50.5180 h1         1 PIR       0.062700
     29 HN4         86.2920    40.4150    49.9770 hn         1 PIR       0.435000
     30 H5'1        88.0820    43.5890    51.9500 h1         1 PIR       0.008200
     31 H5'2        86.3930    43.8160    51.7150 h1         1 PIR       0.008200
     32 HO5         86.7510    42.8200    53.7350 ho         1 PIR       0.435000
@<TRIPOS>BOND
     1     1     2 ar  
     2     1     7 ar  
     3     1    17 1   
     4     2     3 ar  
     5     2     8 1   
     6     3     4 ar  
     7     3    18 1   
     8     4     5 ar  
     9     4    19 1   
    10     5     6 1   
    11     5     7 ar  
    12     6    20 1   
    13     6    21 1   
    14     7    22 1   
    15     8     9 1   
    16     8    14 1   
    17     8    23 1   
    18     9    10 1   
    19     9    11 1   
    20     9    24 1   
    21    10    25 1   
    22    11    12 1   
    23    11    13 1   
    24    11    26 1   
    25    12    27 1   
    26    13    14 1   
    27    13    15 1   
    28    13    28 1   
    29    14    29 1   
    30    15    16 1   
    31    15    30 1   
    32    15    31 1   
    33    16    32 1   
@<TRIPOS>SUBSTRUCTURE
     1 PIR         1 TEMP              0 ****  ****    0 ROOT
