@<TRIPOS>MOLECULE
PIR
   32    33     1     0     0
SMALL
No Charge or Current Charge


@<TRIPOS>ATOM
      1 C1          82.7350    43.1860    50.6330 ca         1 PIR      -0.066500
      2 C2          83.8330    42.3270    50.8550 ca         1 PIR      -0.089300
      3 C3          83.8860    41.6110    52.0740 ca         1 PIR      -0.066500
      4 C4          82.8810    41.7690    53.0450 ca         1 PIR      -0.165500
      5 C5          81.8040    42.6350    52.8130 ca         1 PIR       0.292000
      6 N5          80.8270    42.7870    53.7600 nv         1 PIR      -1.113000
      7 C6          81.7310    43.3410    51.6060 ca         1 PIR      -0.165500
      8 C7          84.9100    42.1760    49.7630 c5         1 PIR       0.231800
      9 C8          85.5980    43.5930    49.6110 c5         1 PIR       0.159300
     10 O2          85.1140    44.3630    48.5050 oh         1 PIR      -0.642000
     11 C9          87.0860    43.2030    49.3760 c5         1 PIR       0.098300
     12 O3          87.3160    42.8050    48.0060 oh         1 PIR      -0.659000
     13 C10         87.2110    42.0090    50.3770 c5         1 PIR       0.160500
     14 N4          85.9960    41.1890    50.0710 n7         1 PIR      -0.852400
     15 C11         87.3330    42.4430    51.8790 c3         1 PIR       0.168600
     16 O5          87.6070    41.3200    52.7330 oh         1 PIR      -0.628000
     17 H1          82.6560    43.7390    49.7000 ha         1 PIR       0.105500
     18 H3          84.7050    40.9270    52.2800 ha         1 PIR       0.105500
     19 H4          82.9430    41.2120    53.9750 ha         1 PIR       0.109500
     20 HN51        80.1300    43.5230    53.6540 hn         1 PIR       0.452500
     21 HN52        80.9560    42.3920    54.6900 hn         1 PIR       0.452500
     22 H6          80.8970    44.0100    51.4140 ha         1 PIR       0.109500
     23 H7          84.4190    41.8890    48.8220 h1         1 PIR       0.073700
     24 H2          85.5040    44.1730    50.5400 h1         1 PIR       0.041700
     25 HO2         85.6830    44.0690    47.7560 ho         1 PIR       0.446000
     26 H8          87.7620    44.0250    49.6490 h1         1 PIR       0.049700
     27 HO3         88.2690    42.5770    47.9230 ho         1 PIR       0.442000
     28 H9          88.1190    41.4310    50.1540 h1         1 PIR       0.062700
     29 HN4         86.1960    40.6950    49.1930 hn         1 PIR       0.435000
     30 H5'1        88.1500    43.1720    51.9620 h1         1 PIR       0.008200
     31 H5'2        86.4130    42.9460    52.2030 h1         1 PIR       0.008200
     32 HO5         87.6240    41.6590    53.6540 ho         1 PIR       0.435000
@<TRIPOS>BOND
     1     1     2 ar  
     2     1     7 ar  
     3     1    17 1   
     4     2     3 ar  
     5     2     8 1   
     6     3     4 ar  
     7     3    18 1   
     8     4     5 ar  
     9     4    19 1   
    10     5     6 1   
    11     5     7 ar  
    12     6    20 1   
    13     6    21 1   
    14     7    22 1   
    15     8     9 1   
    16     8    14 1   
    17     8    23 1   
    18     9    10 1   
    19     9    11 1   
    20     9    24 1   
    21    10    25 1   
    22    11    12 1   
    23    11    13 1   
    24    11    26 1   
    25    12    27 1   
    26    13    14 1   
    27    13    15 1   
    28    13    28 1   
    29    14    29 1   
    30    15    16 1   
    31    15    30 1   
    32    15    31 1   
    33    16    32 1   
@<TRIPOS>SUBSTRUCTURE
     1 PIR         1 TEMP              0 ****  ****    0 ROOT
