@<TRIPOS>MOLECULE
PIS
    9     8     1     0     0
SMALL
abcg2


@<TRIPOS>ATOM
      1 P1           1.6370    -0.0350     0.0450 p5         1 PIS       1.383900
      2 O1           0.1440     0.3350    -0.6610 os         1 PIS      -0.730800
      3 P2          -1.3570     0.3850     0.0070 p5         1 PIS       1.840400
      4 S1          -2.1720    -1.4680    -0.3290 s          1 PIS      -1.681000
      5 O2           2.0670     1.2350     0.7770 o          1 PIS      -0.983167
      6 O3           2.4780    -0.3320    -1.2000 o          1 PIS      -0.983167
      7 O4          -2.0830     1.4380    -0.8230 o          1 PIS      -0.931500
      8 O5           1.4260    -1.2430     0.9470 o          1 PIS      -0.983167
      9 O6          -1.2480     0.6980     1.4890 o          1 PIS      -0.931500
@<TRIPOS>BOND
     1     1     2 1   
     2     1     5 1   
     3     1     6 1   
     4     1     8 1   
     5     2     3 1   
     6     3     4 1   
     7     3     7 1   
     8     3     9 1   
@<TRIPOS>SUBSTRUCTURE
     1 PIS         1 TEMP              0 ****  ****    0 ROOT
