@<TRIPOS>MOLECULE
PIS
    9     8     1     0     0
SMALL
No Charge or Current Charge


@<TRIPOS>ATOM
      1 P1           1.4680     0.0190    -0.0390 p5         1 PIS       1.383900
      2 O1           0.0950    -0.4410    -0.6420 os         1 PIS      -0.730800
      3 P2          -1.1610     0.2070     0.0500 p5         1 PIS       1.840400
      4 S1          -2.7030    -0.8900    -0.5540 s          1 PIS      -1.681000
      5 O2           1.5190     1.4560     0.3410 o          1 PIS      -0.983167
      6 O3           2.4900    -0.1880    -1.1020 o          1 PIS      -0.983167
      7 O4          -1.4680     1.5790    -0.4590 o          1 PIS      -0.931500
      8 O5           1.8490    -0.8420     1.1150 o          1 PIS      -0.983167
      9 O6          -1.1960     0.1140     1.5410 o          1 PIS      -0.931500
@<TRIPOS>BOND
     1     1     2 1   
     2     1     5 1   
     3     1     6 1   
     4     1     8 1   
     5     2     3 1   
     6     3     4 1   
     7     3     7 1   
     8     3     9 1   
@<TRIPOS>SUBSTRUCTURE
     1 PIS         1 TEMP              0 ****  ****    0 ROOT
