@<TRIPOS>MOLECULE
PIT
   30    31     1     0     0
SMALL
No Charge or Current Charge


@<TRIPOS>ATOM
      1 C1           4.0310    -1.2380    -0.1330 ca         1 PIT       0.176600
      2 C2           4.9060    -0.1480    -0.2060 ca         1 PIT      -0.244000
      3 C3           4.3910     1.1540    -0.2030 ca         1 PIT       0.176600
      4 C4           3.0080     1.3650    -0.1280 ca         1 PIT      -0.204500
      5 C5           2.1180     0.2770    -0.0570 ca         1 PIT       0.025200
      6 C6           2.6440    -1.0320    -0.0580 ca         1 PIT      -0.204500
      7 C7           0.6510     0.5400     0.0220 ce         1 PIT      -0.158200
      8 C8          -0.3910    -0.3420    -0.0230 cf         1 PIT      -0.138200
      9 C9          -1.8450    -0.0870     0.0540 ca         1 PIT      -0.047800
     10 C10         -2.7400    -1.1750    -0.0230 ca         1 PIT      -0.113000
     11 C11         -4.1260    -0.9650     0.0470 ca         1 PIT       0.122100
     12 C12         -4.6410     0.3380     0.1960 ca         1 PIT       0.045100
     13 C13         -3.7600     1.4280     0.2750 ca         1 PIT      -0.155000
     14 C14         -2.3700     1.2170     0.2040 ca         1 PIT      -0.098000
     15 O1          -5.9940     0.5390     0.2640 oh         1 PIT      -0.559100
     16 O2           5.2330     2.2210    -0.2730 oh         1 PIT      -0.531600
     17 O3           4.5380    -2.5010    -0.1340 oh         1 PIT      -0.531600
     18 OAD         -4.9870    -2.0200    -0.0290 oh         1 PIT      -0.533100
     19 H3           3.7900    -3.1330    -0.0770 ho         1 PIT       0.466500
     20 H6           1.9830    -1.8900     0.0040 ha         1 PIT       0.122500
     21 H2           5.9770    -0.3220    -0.2640 ha         1 PIT       0.130000
     22 HA           6.1530     1.8830    -0.3190 ho         1 PIT       0.466500
     23 H4           2.6270     2.3830    -0.1280 ha         1 PIT       0.122500
     24 H7           0.4160     1.5980     0.1260 ha         1 PIT       0.176000
     25 H8          -0.1460    -1.3980    -0.1370 ha         1 PIT       0.172000
     26 H10         -2.3620    -2.1880    -0.1390 ha         1 PIT       0.129000
     27 H14         -1.7110     2.0780     0.2680 ha         1 PIT       0.118000
     28 H13         -4.1420     2.4400     0.3900 ha         1 PIT       0.115000
     29 H1          -6.1680     1.5010     0.3670 ho         1 PIT       0.474000
     30 HAD         -5.8900    -1.6350     0.0420 ho         1 PIT       0.482000
@<TRIPOS>BOND
     1     1     2 ar  
     2     1     6 ar  
     3     1    17 1   
     4     2     3 ar  
     5     2    21 1   
     6     3     4 ar  
     7     3    16 1   
     8     4     5 ar  
     9     4    23 1   
    10     5     6 ar  
    11     5     7 1   
    12     6    20 1   
    13     7     8 2   
    14     7    24 1   
    15     8     9 1   
    16     8    25 1   
    17     9    10 ar  
    18     9    14 ar  
    19    10    11 ar  
    20    10    26 1   
    21    11    12 ar  
    22    11    18 1   
    23    12    13 ar  
    24    12    15 1   
    25    13    14 ar  
    26    13    28 1   
    27    14    27 1   
    28    15    29 1   
    29    16    22 1   
    30    17    19 1   
    31    18    30 1   
@<TRIPOS>SUBSTRUCTURE
     1 PIT         1 TEMP              0 ****  ****    0 ROOT
