@<TRIPOS>MOLECULE
PIT
   30    31     1     0     0
SMALL
abcg2


@<TRIPOS>ATOM
      1 C1           3.9380    -1.2520    -0.1980 ca         1 PIT       0.176600
      2 C2           4.8250    -0.1770    -0.1960 ca         1 PIT      -0.244000
      3 C3           4.3230     1.1150    -0.1540 ca         1 PIT       0.176600
      4 C4           2.9500     1.3390    -0.0870 ca         1 PIT      -0.204500
      5 C5           2.0650     0.2640    -0.0930 ca         1 PIT       0.025200
      6 C6           2.5680    -1.0390    -0.1520 ca         1 PIT      -0.204500
      7 C7           0.6310     0.5530    -0.0680 ce         1 PIT      -0.158200
      8 C8          -0.3530    -0.3290     0.1400 cf         1 PIT      -0.138200
      9 C9          -1.7870    -0.0470     0.1610 ca         1 PIT      -0.047800
     10 C10         -2.6810    -1.1170     0.0890 ca         1 PIT      -0.113000
     11 C11         -4.0490    -0.9210     0.0670 ca         1 PIT       0.122100
     12 C12         -4.5540     0.3800     0.1370 ca         1 PIT       0.045100
     13 C13         -3.6800     1.4490     0.2400 ca         1 PIT      -0.155000
     14 C14         -2.3110     1.2420     0.2470 ca         1 PIT      -0.098000
     15 O1          -5.9050     0.4980     0.0850 oh         1 PIT      -0.559100
     16 O2           5.1240     2.1970    -0.1650 oh         1 PIT      -0.531600
     17 O3           4.4780    -2.4840    -0.2580 oh         1 PIT      -0.531600
     18 OAD         -4.8650    -1.9900    -0.0190 oh         1 PIT      -0.533100
     19 H3           3.7850    -3.1490    -0.2520 ho         1 PIT       0.466500
     20 H6           1.8930    -1.8860    -0.1770 ha         1 PIT       0.122500
     21 H2           5.8910    -0.3690    -0.2420 ha         1 PIT       0.130000
     22 HA           6.0460     1.9300    -0.2090 ho         1 PIT       0.466500
     23 H4           2.5800     2.3560    -0.0660 ha         1 PIT       0.122500
     24 H7           0.3780     1.5950    -0.2400 ha         1 PIT       0.176000
     25 H8          -0.0980    -1.3730     0.2970 ha         1 PIT       0.172000
     26 H10         -2.3090    -2.1340     0.0360 ha         1 PIT       0.129000
     27 H14         -1.6570     2.0980     0.3430 ha         1 PIT       0.118000
     28 H13         -4.0650     2.4600     0.3050 ha         1 PIT       0.115000
     29 H1          -6.1830     1.3790     0.3470 ho         1 PIT       0.474000
     30 HAD         -5.7830    -1.7030     0.0100 ho         1 PIT       0.482000
@<TRIPOS>BOND
     1     1     2 ar  
     2     1     6 ar  
     3     1    17 1   
     4     2     3 ar  
     5     2    21 1   
     6     3     4 ar  
     7     3    16 1   
     8     4     5 ar  
     9     4    23 1   
    10     5     6 ar  
    11     5     7 1   
    12     6    20 1   
    13     7     8 2   
    14     7    24 1   
    15     8     9 1   
    16     8    25 1   
    17     9    10 ar  
    18     9    14 ar  
    19    10    11 ar  
    20    10    26 1   
    21    11    12 ar  
    22    11    18 1   
    23    12    13 ar  
    24    12    15 1   
    25    13    14 ar  
    26    13    28 1   
    27    14    27 1   
    28    15    29 1   
    29    16    22 1   
    30    17    19 1   
    31    18    30 1   
@<TRIPOS>SUBSTRUCTURE
     1 PIT         1 TEMP              0 ****  ****    0 ROOT
