@<TRIPOS>MOLECULE
PIU
   42    43     1     0     0
SMALL
No Charge or Current Charge


@<TRIPOS>ATOM
      1 S1          -5.1890    -0.1100     0.0400 sy         1 PIU       1.122600
      2 O1          -5.6680     1.2030     0.4640 o          1 PIU      -0.529000
      3 O2          -5.6020    -1.3550     0.6870 o          1 PIU      -0.529000
      4 N1          -5.7120    -0.2390    -1.5050 n8         1 PIU      -1.003100
      5 C1          -1.2910    -1.2600    -0.4300 ca         1 PIU      -0.124500
      6 C3          -1.3240     1.1690    -0.4150 ca         1 PIU      -0.124500
      7 C4          -2.7200     1.1540    -0.2480 ca         1 PIU       0.003000
      8 C6          -2.6860    -1.2850    -0.2630 ca         1 PIU       0.003000
      9 C2          -0.6030    -0.0350    -0.5090 ca         1 PIU      -0.065300
     10 C5          -3.4070    -0.0760    -0.1720 ca         1 PIU      -0.254500
     11 C16          1.6360    -0.0250     0.6820 c3         1 PIU       0.022600
     12 N2           3.1180    -0.0060     0.5520 na         1 PIU       0.036300
     13 C7           5.1380     1.2350    -0.0560 ca         1 PIU      -0.150500
     14 C9           5.1650    -1.1820    -0.0930 ca         1 PIU      -0.150500
     15 C10          3.8330    -1.2110     0.3650 ca         1 PIU      -0.003800
     16 C11          3.8050     1.2190     0.4020 ca         1 PIU       0.046900
     17 C8           5.8200     0.0370    -0.3180 ca         1 PIU       0.068700
     18 C12          7.2570     0.0610    -0.8120 c3         1 PIU      -0.080800
     19 C13          3.1260     2.5500     0.7270 c3         1 PIU      -0.083300
     20 C14          3.1830    -2.5660     0.6490 c3         1 PIU      -0.083300
     21 HN11        -6.4140     0.4970    -1.5360 hn         1 PIU       0.481000
     22 HN12        -4.9340     0.1470    -2.0340 hn         1 PIU       0.481000
     23 H1          -0.7450    -2.1990    -0.4970 ha         1 PIU       0.114500
     24 H3          -0.8040     2.1230    -0.4700 ha         1 PIU       0.114500
     25 H4          -3.2580     2.0980    -0.1760 ha         1 PIU       0.150500
     26 H6          -3.2010    -2.2430    -0.2060 ha         1 PIU       0.150500
     27 H151         1.2120     0.8740    -1.2480 hc         1 PIU       0.066700
     28 H152         1.2330    -0.8770    -1.2740 hc         1 PIU       0.066700
     29 H161         1.3220    -0.9080     1.2500 h1         1 PIU       0.095700
     30 H162         1.3010     0.8340     1.2750 h1         1 PIU       0.095700
     31 H7           5.6510     2.1830    -0.1990 ha         1 PIU       0.168000
     32 H9           5.7000    -2.1140    -0.2650 ha         1 PIU       0.168000
     33 H121         7.2920     0.0820    -1.9080 hc         1 PIU       0.082700
     34 H122         7.7940     0.9430    -0.4430 hc         1 PIU       0.082700
     35 H123         7.8110    -0.8230    -0.4770 hc         1 PIU       0.082700
     36 H131         2.7580     2.5670     1.7600 hc         1 PIU       0.087367
     37 H132         3.8170     3.3960     0.6230 hc         1 PIU       0.087367
     38 H133         2.2800     2.7450     0.0580 hc         1 PIU       0.087367
     39 H141         2.8160    -2.6230     1.6810 hc         1 PIU       0.087367
     40 H142         2.3410    -2.7590    -0.0250 hc         1 PIU       0.087367
     41 H143         3.8920    -3.3930     0.5200 hc         1 PIU       0.087367
     42 C15          0.9080    -0.0140    -0.6800 c3         1 PIU      -0.048100
@<TRIPOS>BOND
     1     1     2 2   
     2     1     3 2   
     3     1     4 1   
     4     1    10 1   
     5     4    21 1   
     6     4    22 1   
     7     5     8 ar  
     8     5     9 ar  
     9     5    23 1   
    10     6     7 ar  
    11     6     9 ar  
    12     6    24 1   
    13     7    10 ar  
    14     7    25 1   
    15     8    10 ar  
    16     8    26 1   
    17     9    42 1   
    18    11    12 1   
    19    11    29 1   
    20    11    30 1   
    21    11    42 1   
    22    12    15 1   
    23    12    16 2   
    24    13    16 ar  
    25    13    17 ar  
    26    13    31 1   
    27    14    15 ar  
    28    14    17 ar  
    29    14    32 1   
    30    15    20 1   
    31    16    19 1   
    32    17    18 1   
    33    18    33 1   
    34    18    34 1   
    35    18    35 1   
    36    19    36 1   
    37    19    37 1   
    38    19    38 1   
    39    20    39 1   
    40    20    40 1   
    41    20    41 1   
    42    27    42 1   
    43    28    42 1   
@<TRIPOS>SUBSTRUCTURE
     1 PIU         1 TEMP              0 ****  ****    0 ROOT
