@<TRIPOS>MOLECULE
PIU
   42    43     1     0     0
SMALL
bcc


@<TRIPOS>ATOM
      1 S1          -5.0170    -0.0120     0.2080 sy         1 PIU       1.264200
      2 O1          -5.4360     1.3270     0.5980 o          1 PIU      -0.599800
      3 O2          -5.3150    -1.1170     1.1080 o          1 PIU      -0.599800
      4 N1          -5.5960    -0.4670    -1.2700 n8         1 PIU      -0.892700
      5 C1          -1.2160    -1.1260    -0.4340 ca         1 PIU      -0.142500
      6 C3          -1.2740     1.2720    -0.5250 ca         1 PIU      -0.142500
      7 C4          -2.6390     1.2550    -0.2770 ca         1 PIU      -0.015000
      8 C6          -2.5760    -1.1610    -0.1870 ca         1 PIU      -0.015000
      9 C2          -0.5510     0.0870    -0.6070 ca         1 PIU      -0.065300
     10 C5          -3.2770     0.0360    -0.1120 ca         1 PIU      -0.254500
     11 C16          1.6540     0.0050     0.5170 c3         1 PIU      -0.006700
     12 N2           3.1170    -0.0080     0.3490 na         1 PIU       0.014900
     13 C7           5.1480     1.1620     0.0760 ca         1 PIU      -0.168500
     14 C9           5.1170    -1.2080    -0.0130 ca         1 PIU      -0.168500
     15 C10          3.7560    -1.1960     0.2030 ca         1 PIU       0.046900
     16 C11          3.7880     1.1710     0.2930 ca         1 PIU       0.046900
     17 C8           5.8460    -0.0290    -0.0870 ca         1 PIU       0.068700
     18 C12          7.3120    -0.0310    -0.3540 c3         1 PIU      -0.080800
     19 C13          3.0630     2.4600     0.4890 c3         1 PIU      -0.083300
     20 C14          2.9950    -2.4750     0.3030 c3         1 PIU      -0.083300
     21 HN11        -6.5410    -0.8340    -1.2030 hn         1 PIU       0.425800
     22 HN12        -5.5560     0.2800    -1.9550 hn         1 PIU       0.425800
     23 H1          -0.6650    -2.0570    -0.4990 ha         1 PIU       0.132500
     24 H3          -0.7730     2.2220    -0.6630 ha         1 PIU       0.132500
     25 H4          -3.1870     2.1850    -0.2150 ha         1 PIU       0.168500
     26 H6          -3.0760    -2.1110    -0.0560 ha         1 PIU       0.168500
     27 H151         1.2270     1.0240    -1.3420 hc         1 PIU       0.066700
     28 H152         1.2300    -0.7210    -1.4750 hc         1 PIU       0.066700
     29 H161         1.3580    -0.8960     1.0450 h1         1 PIU       0.095700
     30 H162         1.3870     0.8330     1.1680 h1         1 PIU       0.095700
     31 H7           5.6660     2.1090     0.0330 ha         1 PIU       0.186000
     32 H9           5.6100    -2.1630    -0.1260 ha         1 PIU       0.186000
     33 H121         7.4870     0.1510    -1.4170 hc         1 PIU       0.082700
     34 H122         7.8140     0.7610     0.1980 hc         1 PIU       0.082700
     35 H123         7.7660    -0.9860    -0.0990 hc         1 PIU       0.082700
     36 H131         2.6580     2.5370     1.5000 hc         1 PIU       0.087367
     37 H132         3.7540     3.2850     0.3460 hc         1 PIU       0.087367
     38 H133         2.2410     2.5910    -0.2130 hc         1 PIU       0.087367
     39 H141         2.6040    -2.6230     1.3110 hc         1 PIU       0.087367
     40 H142         2.1560    -2.5190    -0.3910 hc         1 PIU       0.087367
     41 H143         3.6560    -3.3070     0.0780 hc         1 PIU       0.087367
     42 C15          0.9340     0.1080    -0.8290 c3         1 PIU      -0.048100
@<TRIPOS>BOND
     1     1     2 2   
     2     1     3 2   
     3     1     4 1   
     4     1    10 1   
     5     4    21 1   
     6     4    22 1   
     7     5     8 ar  
     8     5     9 ar  
     9     5    23 1   
    10     6     7 ar  
    11     6     9 ar  
    12     6    24 1   
    13     7    10 ar  
    14     7    25 1   
    15     8    10 ar  
    16     8    26 1   
    17     9    42 1   
    18    11    12 1   
    19    11    29 1   
    20    11    30 1   
    21    11    42 1   
    22    12    15 1   
    23    12    16 2   
    24    13    16 ar  
    25    13    17 ar  
    26    13    31 1   
    27    14    15 ar  
    28    14    17 ar  
    29    14    32 1   
    30    15    20 1   
    31    16    19 1   
    32    17    18 1   
    33    18    33 1   
    34    18    34 1   
    35    18    35 1   
    36    19    36 1   
    37    19    37 1   
    38    19    38 1   
    39    20    39 1   
    40    20    40 1   
    41    20    41 1   
    42    27    42 1   
    43    28    42 1   
@<TRIPOS>SUBSTRUCTURE
     1 PIU         1 TEMP              0 ****  ****    0 ROOT
