@<TRIPOS>MOLECULE
PIV
   16    15     1     0     0
SMALL
No Charge or Current Charge


@<TRIPOS>ATOM
      1 CT          -0.0240     0.0010     0.6470 c3         1 PIV      -0.185000
      2 C1           1.3740    -0.0740     1.3300 c3         1 PIV      -0.051433
      3 C2          -0.8580    -1.2310     1.1080 c3         1 PIV      -0.051433
      4 C3          -0.7420     1.3000     1.1000 c3         1 PIV      -0.051433
      5 C            0.1110     0.0410    -0.9150 c          1 PIV       0.723000
      6 O1           1.1370     0.4910    -1.4080 o          1 PIV      -0.737500
      7 O2          -0.7550    -0.4900    -1.5970 o          1 PIV      -0.737500
      8 H11          1.2750    -0.1330     2.4210 hc         1 PIV       0.010367
      9 H12          1.9240    -0.9620     0.9940 hc         1 PIV       0.010367
     10 H13          1.9800     0.8120     1.1020 hc         1 PIV       0.010367
     11 H21         -0.3970    -2.1640     0.7630 hc         1 PIV       0.010367
     12 H22         -0.9240    -1.2720     2.2020 hc         1 PIV       0.010367
     13 H23         -1.8820    -1.1900     0.7170 hc         1 PIV       0.010367
     14 H31         -0.1690     2.1860     0.8020 hc         1 PIV       0.010367
     15 H32         -1.7370     1.3730     0.6450 hc         1 PIV       0.010367
     16 H33         -0.8630     1.3240     2.1900 hc         1 PIV       0.010367
@<TRIPOS>BOND
     1     1     2 1   
     2     1     3 1   
     3     1     4 1   
     4     1     5 1   
     5     2     8 1   
     6     2     9 1   
     7     2    10 1   
     8     3    11 1   
     9     3    12 1   
    10     3    13 1   
    11     4    14 1   
    12     4    15 1   
    13     4    16 1   
    14     5     6 1   
    15     5     7 1   
@<TRIPOS>SUBSTRUCTURE
     1 PIV         1 TEMP              0 ****  ****    0 ROOT
