@<TRIPOS>MOLECULE
PIV
   16    15     1     0     0
SMALL
abcg2


@<TRIPOS>ATOM
      1 CT          -0.0040     0.0010     0.6530 c3         1 PIV      -0.185000
      2 C1           1.3600    -0.0210     1.3350 c3         1 PIV      -0.051433
      3 C2          -0.7980    -1.2370     1.0790 c3         1 PIV      -0.051433
      4 C3          -0.7660     1.2550     1.0930 c3         1 PIV      -0.051433
      5 C            0.1150     0.0080    -0.8940 c          1 PIV       0.723000
      6 O1           1.2560    -0.0030    -1.3980 o          1 PIV      -0.737500
      7 O2          -0.9610     0.0260    -1.5280 o          1 PIV      -0.737500
      8 H11          1.2400    -0.0290     2.4210 hc         1 PIV       0.010367
      9 H12          1.9370    -0.9060     1.0610 hc         1 PIV       0.010367
     10 H13          1.9580     0.8540     1.0760 hc         1 PIV       0.010367
     11 H21         -0.3070    -2.1590     0.7580 hc         1 PIV       0.010367
     12 H22         -0.8970    -1.2820     2.1660 hc         1 PIV       0.010367
     13 H23         -1.8010    -1.2290     0.6510 hc         1 PIV       0.010367
     14 H31         -0.2500     2.1670     0.7810 hc         1 PIV       0.010367
     15 H32         -1.7680     1.2770     0.6660 hc         1 PIV       0.010367
     16 H33         -0.8630     1.2900     2.1810 hc         1 PIV       0.010367
@<TRIPOS>BOND
     1     1     2 1   
     2     1     3 1   
     3     1     4 1   
     4     1     5 1   
     5     2     8 1   
     6     2     9 1   
     7     2    10 1   
     8     3    11 1   
     9     3    12 1   
    10     3    13 1   
    11     4    14 1   
    12     4    15 1   
    13     4    16 1   
    14     5     6 1   
    15     5     7 1   
@<TRIPOS>SUBSTRUCTURE
     1 PIV         1 TEMP              0 ****  ****    0 ROOT
