@<TRIPOS>MOLECULE
PIW
   19    20     1     0     0
SMALL
abcg2


@<TRIPOS>ATOM
      1 N1           0.9760    -0.0370    -0.0300 na         1 PIW      -0.076300
      2 C2           1.7930     0.9390    -0.5040 cc         1 PIW       0.400400
      3 N3           3.0520     0.6240    -0.3740 nd         1 PIW      -0.669000
      4 C4           3.0620    -0.6120     0.2120 cd         1 PIW       0.231900
      5 C5           1.7880    -1.0430     0.4310 cc         1 PIW      -0.222000
      6 C6          -0.4350    -0.0200    -0.0290 ca         1 PIW       0.004800
      7 C7          -1.1410    -1.1860    -0.3030 ca         1 PIW      -0.118500
      8 C8          -2.5270    -1.1640    -0.2960 ca         1 PIW      -0.093500
      9 C9          -3.2110     0.0160    -0.0340 ca         1 PIW      -0.112000
     10 C10         -2.4980     1.1770     0.2330 ca         1 PIW      -0.093500
     11 C11         -1.1110     1.1620     0.2480 ca         1 PIW      -0.118500
     12 H2           1.4090     1.8430    -0.9510 h5         1 PIW       0.057100
     13 H4           3.9810    -1.1260     0.4500 h4         1 PIW       0.039100
     14 H5           1.3970    -1.9390     0.8830 h4         1 PIW       0.159000
     15 H7          -0.6150    -2.1030    -0.5370 ha         1 PIW       0.126500
     16 H8          -3.0740    -2.0730    -0.5110 ha         1 PIW       0.120000
     17 H9          -4.2930     0.0290    -0.0350 ha         1 PIW       0.120000
     18 H10         -3.0210     2.0990     0.4490 ha         1 PIW       0.120000
     19 H11         -0.5630     2.0630     0.4910 ha         1 PIW       0.126500
@<TRIPOS>BOND
     1     1     2 1   
     2     1     5 1   
     3     1     6 1   
     4     2     3 2   
     5     2    12 1   
     6     3     4 1   
     7     4     5 2   
     8     4    13 1   
     9     5    14 1   
    10     6     7 ar  
    11     6    11 ar  
    12     7     8 ar  
    13     7    15 1   
    14     8     9 ar  
    15     8    16 1   
    16     9    10 ar  
    17     9    17 1   
    18    10    11 ar  
    19    10    18 1   
    20    11    19 1   
@<TRIPOS>SUBSTRUCTURE
     1 PIW         1 TEMP              0 ****  ****    0 ROOT
