@<TRIPOS>MOLECULE
PIW
   19    20     1     0     0
SMALL
No Charge or Current Charge


@<TRIPOS>ATOM
      1 N1           0.9990    -0.0320    -0.0280 na         1 PIW      -0.076300
      2 C2           1.7990     0.9970    -0.4700 cc         1 PIW       0.400400
      3 N3           3.0740     0.6440    -0.3370 nd         1 PIW      -0.669000
      4 C4           3.0620    -0.6350     0.2020 cd         1 PIW       0.231900
      5 C5           1.7770    -1.0790     0.4020 cc         1 PIW      -0.222000
      6 C6          -0.4000    -0.0170    -0.0280 ca         1 PIW       0.004800
      7 C7          -1.1280    -1.2010    -0.2740 ca         1 PIW      -0.118500
      8 C8          -2.5340    -1.1860    -0.2760 ca         1 PIW      -0.093500
      9 C9          -3.2260     0.0110    -0.0320 ca         1 PIW      -0.112000
     10 C10         -2.5110     1.1950     0.2150 ca         1 PIW      -0.093500
     11 C11         -1.1050     1.1820     0.2160 ca         1 PIW      -0.118500
     12 H2           1.4130     1.9270    -0.8700 h5         1 PIW       0.057100
     13 H4           3.9820    -1.1650     0.4190 h4         1 PIW       0.039100
     14 H5           1.3920    -2.0060     0.8050 h4         1 PIW       0.159000
     15 H7          -0.6090    -2.1350    -0.4750 ha         1 PIW       0.126500
     16 H8          -3.0870    -2.1030    -0.4690 ha         1 PIW       0.120000
     17 H9          -4.3140     0.0220    -0.0330 ha         1 PIW       0.120000
     18 H10         -3.0460     2.1220     0.4070 ha         1 PIW       0.120000
     19 H11         -0.5700     2.1070     0.4200 ha         1 PIW       0.126500
@<TRIPOS>BOND
     1     1     2 1   
     2     1     5 1   
     3     1     6 1   
     4     2     3 2   
     5     2    12 1   
     6     3     4 1   
     7     4     5 2   
     8     4    13 1   
     9     5    14 1   
    10     6     7 ar  
    11     6    11 ar  
    12     7     8 ar  
    13     7    15 1   
    14     8     9 ar  
    15     8    16 1   
    16     9    10 ar  
    17     9    17 1   
    18    10    11 ar  
    19    10    18 1   
    20    11    19 1   
@<TRIPOS>SUBSTRUCTURE
     1 PIW         1 TEMP              0 ****  ****    0 ROOT
