@<TRIPOS>MOLECULE
PIX
   45    47     1     0     0
SMALL
bcc


@<TRIPOS>ATOM
      1 O9          -7.3090    -1.4990     1.6190 o          1 PIX      -0.842800
      2 C8          -6.6460    -1.6000     0.5640 c          1 PIX       1.005600
      3 N3          -6.2780    -0.3940    -0.0790 n          1 PIX      -0.503800
      4 C2          -6.3010     0.8410     0.6740 c6         1 PIX       0.101500
      5 C1          -4.9760     1.0930     1.3890 c6         1 PIX      -0.104900
      6 C4          -5.2180    -0.4090    -1.0620 c6         1 PIX       0.101500
      7 C5          -3.8440    -0.2010    -0.4290 c6         1 PIX      -0.104900
      8 C6          -3.8130     1.0840     0.3960 c6         1 PIX      -0.053700
      9 C7          -2.4750     1.3000     1.1130 c3         1 PIX      -0.037100
     10 C12         -1.3200     1.4630     0.1660 ca         1 PIX      -0.041300
     11 C13         -1.1470     2.6590    -0.5300 ca         1 PIX      -0.125000
     12 C14         -0.1130     2.8080    -1.4420 ca         1 PIX      -0.123000
     13 C15          0.7760     1.7690    -1.6750 ca         1 PIX      -0.139000
     14 C17         -0.4210     0.4250    -0.0630 ca         1 PIX      -0.113000
     15 C16          0.6080     0.5870    -0.9760 ca         1 PIX       0.097100
     16 O18          1.4350    -0.4890    -1.2340 os         1 PIX      -0.358400
     17 C19          2.6820    -0.4960    -0.7400 ca         1 PIX       0.686600
     18 C20          3.5250    -1.5250    -1.1670 ca         1 PIX      -0.274300
     19 C21          4.8060    -1.5460    -0.6700 ca         1 PIX      -0.021000
     20 N24          3.0440     0.4380     0.1100 nb         1 PIX      -0.736000
     21 C23          4.2830     0.4080     0.5880 ca         1 PIX       0.501200
     22 C24          5.2060    -0.5600     0.2330 ca         1 PIX      -0.376600
     23 C25          6.5990    -0.5170     0.7610 c3         1 PIX       0.734200
     24 F28          7.4080     0.2160    -0.0200 f          1 PIX      -0.238300
     25 F26          6.6590     0.0210     1.9840 f          1 PIX      -0.238300
     26 F27          7.1440    -1.7370     0.8360 f          1 PIX      -0.238300
     27 OXT         -6.3100    -2.6650     0.0020 o          1 PIX      -0.842800
     28 H21C        -6.4910     1.6710    -0.0180 h1         1 PIX       0.034200
     29 H22C        -7.1250     0.8190     1.3820 h1         1 PIX       0.034200
     30 H41C        -5.2490    -1.3450    -1.6140 h1         1 PIX       0.034200
     31 H42C        -5.3980     0.3960    -1.7860 h1         1 PIX       0.034200
     32 H11C        -5.0090     2.0490     1.9200 hc         1 PIX       0.034450
     33 H12C        -4.8230     0.3120     2.1420 hc         1 PIX       0.034450
     34 H6          -3.9640     1.9260    -0.2940 hc         1 PIX       0.029700
     35 H51C        -3.6160    -1.0590     0.2150 hc         1 PIX       0.034450
     36 H52C        -3.0770    -0.1770    -1.2080 hc         1 PIX       0.034450
     37 H71C        -2.5540     2.1930     1.7400 hc         1 PIX       0.045200
     38 H72C        -2.2910     0.4610     1.7910 hc         1 PIX       0.045200
     39 H13         -1.8330     3.4800    -0.3570 ha         1 PIX       0.134000
     40 H17         -0.5250    -0.5150     0.4660 ha         1 PIX       0.151000
     41 H14          0.0050     3.7420    -1.9770 ha         1 PIX       0.126000
     42 H15          1.5810     1.8780    -2.3910 ha         1 PIX       0.133000
     43 H20          3.1790    -2.2740    -1.8670 ha         1 PIX       0.165000
     44 H21          5.4850    -2.3260    -0.9890 ha         1 PIX       0.150000
     45 H23          4.5350     1.1980     1.2850 h4         1 PIX       0.033100
@<TRIPOS>BOND
     1     1     2 1   
     2     2     3 1   
     3     2    27 1   
     4     3     4 1   
     5     3     6 1   
     6     4     5 1   
     7     4    28 1   
     8     4    29 1   
     9     5     8 1   
    10     5    32 1   
    11     5    33 1   
    12     6     7 1   
    13     6    30 1   
    14     6    31 1   
    15     7     8 1   
    16     7    35 1   
    17     7    36 1   
    18     8     9 1   
    19     8    34 1   
    20     9    10 1   
    21     9    37 1   
    22     9    38 1   
    23    10    11 ar  
    24    10    14 ar  
    25    11    12 ar  
    26    11    39 1   
    27    12    13 ar  
    28    12    41 1   
    29    13    15 ar  
    30    13    42 1   
    31    14    15 ar  
    32    14    40 1   
    33    15    16 1   
    34    16    17 1   
    35    17    18 ar  
    36    17    20 ar  
    37    18    19 ar  
    38    18    43 1   
    39    19    22 ar  
    40    19    44 1   
    41    20    21 ar  
    42    21    22 ar  
    43    21    45 1   
    44    22    23 1   
    45    23    24 1   
    46    23    25 1   
    47    23    26 1   
@<TRIPOS>SUBSTRUCTURE
     1 PIX         1 TEMP              0 ****  ****    0 ROOT
