@<TRIPOS>MOLECULE
PIX
   45    47     1     0     0
SMALL
No Charge or Current Charge


@<TRIPOS>ATOM
      1 O9          -8.7570    -0.5240    -0.2040 o          1 PIX      -0.737500
      2 C8          -7.7050    -0.9540    -0.6490 c          1 PIX       0.728000
      3 N3          -6.4950    -0.4120    -0.1680 n          1 PIX      -0.436800
      4 C2          -6.5090     0.8280     0.6690 c6         1 PIX       0.101500
      5 C1          -5.2050     1.1220     1.4470 c6         1 PIX      -0.104900
      6 C4          -5.2030    -0.7360    -0.8490 c6         1 PIX       0.101500
      7 C5          -3.9220    -0.4110    -0.0450 c6         1 PIX      -0.104900
      8 C6          -3.9570     1.0140     0.5470 c6         1 PIX      -0.053700
      9 C7          -2.6570     1.3640     1.3310 c3         1 PIX      -0.037100
     10 C12         -1.3990     1.3600     0.4690 ca         1 PIX      -0.041300
     11 C13         -1.1700     2.3990    -0.4530 ca         1 PIX      -0.107000
     12 C14         -0.0180     2.3930    -1.2590 ca         1 PIX      -0.105000
     13 C15          0.9160     1.3500    -1.1430 ca         1 PIX      -0.121000
     14 C17         -0.4590     0.3170     0.5820 ca         1 PIX      -0.095000
     15 C16          0.7010     0.3160    -0.2110 ca         1 PIX       0.097100
     16 O18          1.5840    -0.7340    -0.0940 os         1 PIX      -0.358400
     17 C19          2.9500    -0.5760    -0.1310 ca         1 PIX       0.621300
     18 C20          3.7090    -1.5840    -0.7390 ca         1 PIX      -0.191000
     19 C21          5.1040    -1.4720    -0.7760 ca         1 PIX      -0.003000
     20 N24          3.5100     0.5050     0.4540 nb         1 PIX      -0.736000
     21 C23          4.8540     0.6160     0.4190 ca         1 PIX       0.435900
     22 C24          5.6910    -0.3360    -0.1870 ca         1 PIX      -0.311300
     23 C25          7.2000    -0.1230    -0.1650 c3         1 PIX       0.370300
     24 F28          7.5300     1.1520    -0.4710 f          1 PIX      -0.117000
     25 F26          7.7140    -0.3840     1.0570 f          1 PIX      -0.117000
     26 F27          7.8520    -0.9150    -1.0460 f          1 PIX      -0.117000
     27 OXT         -7.6570    -1.8420    -1.4830 o          1 PIX      -0.737500
     28 H21C        -6.7200     1.6800     0.0060 h1         1 PIX       0.034200
     29 H22C        -7.3310     0.7760     1.3960 h1         1 PIX       0.034200
     30 H41C        -5.1770    -1.8050    -1.1060 h1         1 PIX       0.034200
     31 H42C        -5.1720    -0.1780    -1.7960 h1         1 PIX       0.034200
     32 H11C        -5.2670     2.1250     1.8920 hc         1 PIX       0.034450
     33 H12C        -5.1190     0.4170     2.2860 hc         1 PIX       0.034450
     34 H6          -4.0450     1.7430    -0.2710 hc         1 PIX       0.029700
     35 H51C        -3.8070    -1.1450     0.7640 hc         1 PIX       0.034450
     36 H52C        -3.0500    -0.5340    -0.7010 hc         1 PIX       0.034450
     37 H71C        -2.7650     2.3550     1.7880 hc         1 PIX       0.045200
     38 H72C        -2.5370     0.6690     2.1720 hc         1 PIX       0.045200
     39 H13         -1.8890     3.2100    -0.5500 ha         1 PIX       0.116000
     40 H17         -0.6260    -0.4960     1.2840 ha         1 PIX       0.133000
     41 H14          0.1490     3.1950    -1.9750 ha         1 PIX       0.108000
     42 H15          1.7990     1.3460    -1.7770 ha         1 PIX       0.115000
     43 H20          3.2090    -2.4410    -1.1780 ha         1 PIX       0.147000
     44 H21          5.7040    -2.2490    -1.2470 ha         1 PIX       0.132000
     45 H23          5.2720     1.5010     0.9000 h4         1 PIX       0.033100
@<TRIPOS>BOND
     1     1     2 1   
     2     2     3 1   
     3     2    27 1   
     4     3     4 1   
     5     3     6 1   
     6     4     5 1   
     7     4    28 1   
     8     4    29 1   
     9     5     8 1   
    10     5    32 1   
    11     5    33 1   
    12     6     7 1   
    13     6    30 1   
    14     6    31 1   
    15     7     8 1   
    16     7    35 1   
    17     7    36 1   
    18     8     9 1   
    19     8    34 1   
    20     9    10 1   
    21     9    37 1   
    22     9    38 1   
    23    10    11 ar  
    24    10    14 ar  
    25    11    12 ar  
    26    11    39 1   
    27    12    13 ar  
    28    12    41 1   
    29    13    15 ar  
    30    13    42 1   
    31    14    15 ar  
    32    14    40 1   
    33    15    16 1   
    34    16    17 1   
    35    17    18 ar  
    36    17    20 ar  
    37    18    19 ar  
    38    18    43 1   
    39    19    22 ar  
    40    19    44 1   
    41    20    21 ar  
    42    21    22 ar  
    43    21    45 1   
    44    22    23 1   
    45    23    24 1   
    46    23    25 1   
    47    23    26 1   
@<TRIPOS>SUBSTRUCTURE
     1 PIX         1 TEMP              0 ****  ****    0 ROOT
