@<TRIPOS>MOLECULE
PIY
   19    20     1     0     0
SMALL
abcg2


@<TRIPOS>ATOM
      1 N1          -1.8270     1.0320     0.0210 na         1 PIY      -0.289500
      2 C2          -1.0290    -0.0600    -0.0300 cc         1 PIY       0.454000
      3 N3          -1.7520    -1.1560    -0.0970 nd         1 PIY      -0.671000
      4 C4          -3.1220     0.6110    -0.0150 cc         1 PIY      -0.232000
      5 C5          -3.0520    -0.7520    -0.0890 cd         1 PIY       0.236900
      6 C6           0.4320    -0.0180    -0.0120 ca         1 PIY      -0.119500
      7 C7           1.1460    -1.2180     0.0270 ca         1 PIY      -0.090500
      8 C8           2.5310    -1.2120     0.0430 ca         1 PIY      -0.111500
      9 C9           3.2280    -0.0110     0.0220 ca         1 PIY      -0.103000
     10 C10          2.5260     1.1860    -0.0170 ca         1 PIY      -0.111500
     11 C11          1.1390     1.1850    -0.0350 ca         1 PIY      -0.090500
     12 H4          -3.9510     1.2970     0.0120 h4         1 PIY       0.157000
     13 H5          -3.8690    -1.4550    -0.1380 h4         1 PIY       0.038100
     14 H7           0.6070    -2.1550     0.0460 ha         1 PIY       0.119500
     15 H8           3.0690    -2.1510     0.0740 ha         1 PIY       0.114500
     16 H9           4.3100    -0.0070     0.0370 ha         1 PIY       0.114000
     17 H10          3.0590     2.1280    -0.0370 ha         1 PIY       0.114500
     18 H11          0.6220     2.1350    -0.0740 ha         1 PIY       0.119500
     19 HN1         -1.5400     1.9950     0.0850 hn         1 PIY       0.351000
@<TRIPOS>BOND
     1     1     2 1   
     2     1     4 1   
     3     1    19 1   
     4     2     3 2   
     5     2     6 1   
     6     3     5 1   
     7     4     5 2   
     8     4    12 1   
     9     5    13 1   
    10     6     7 ar  
    11     6    11 ar  
    12     7     8 ar  
    13     7    14 1   
    14     8     9 ar  
    15     8    15 1   
    16     9    10 ar  
    17     9    16 1   
    18    10    11 ar  
    19    10    17 1   
    20    11    18 1   
@<TRIPOS>SUBSTRUCTURE
     1 PIY         1 TEMP              0 ****  ****    0 ROOT
