@<TRIPOS>MOLECULE
PIY
   19    20     1     0     0
SMALL
No Charge or Current Charge


@<TRIPOS>ATOM
      1 N1          -1.8460     1.0480    -0.0300 na         1 PIY      -0.289500
      2 C2          -1.0450    -0.0700    -0.0210 cc         1 PIY       0.454000
      3 N3          -1.7920    -1.1650    -0.0280 nd         1 PIY      -0.671000
      4 C4          -3.1620     0.6310    -0.0440 cc         1 PIY      -0.232000
      5 C5          -3.1040    -0.7380    -0.0420 cd         1 PIY       0.236900
      6 C6           0.4280    -0.0400    -0.0060 ca         1 PIY      -0.119500
      7 C7           1.1680    -1.2460     0.0020 ca         1 PIY      -0.090500
      8 C8           2.5740    -1.2270     0.0170 ca         1 PIY      -0.111500
      9 C9           3.2620    -0.0040     0.0230 ca         1 PIY      -0.103000
     10 C10          2.5430     1.2010     0.0140 ca         1 PIY      -0.111500
     11 C11          1.1370     1.1850     0.0000 ca         1 PIY      -0.090500
     12 H4          -4.0100     1.3060    -0.0530 h4         1 PIY       0.157000
     13 H5          -3.9320    -1.4380    -0.0500 h4         1 PIY       0.038100
     14 H7           0.6560    -2.2050    -0.0020 ha         1 PIY       0.119500
     15 H8           3.1290    -2.1630     0.0230 ha         1 PIY       0.114500
     16 H9           4.3500     0.0100     0.0340 ha         1 PIY       0.114000
     17 H10          3.0750     2.1500     0.0190 ha         1 PIY       0.114500
     18 H11          0.6080     2.1350    -0.0060 ha         1 PIY       0.119500
     19 HN1         -1.5110     2.0030    -0.0280 hn         1 PIY       0.351000
@<TRIPOS>BOND
     1     1     2 1   
     2     1     4 1   
     3     1    19 1   
     4     2     3 2   
     5     2     6 1   
     6     3     5 1   
     7     4     5 2   
     8     4    12 1   
     9     5    13 1   
    10     6     7 ar  
    11     6    11 ar  
    12     7     8 ar  
    13     7    14 1   
    14     8     9 ar  
    15     8    15 1   
    16     9    10 ar  
    17     9    16 1   
    18    10    11 ar  
    19    10    17 1   
    20    11    18 1   
@<TRIPOS>SUBSTRUCTURE
     1 PIY         1 TEMP              0 ****  ****    0 ROOT
