@<TRIPOS>MOLECULE
PJ0
   21    22     1     0     0
SMALL
No Charge or Current Charge


@<TRIPOS>ATOM
      1 C1         -29.1270   -40.2690    -9.2320 c3         1 PJ0      -0.042800
      2 C2         -29.6230   -41.6340    -9.7050 ca         1 PJ0      -0.158300
      3 C3         -28.7120   -42.6080   -10.1570 ca         1 PJ0      -0.024000
      4 C4         -29.1900   -43.8610   -10.5880 ca         1 PJ0       0.189000
      5 C6         -28.7990   -45.9970   -11.4330 ca         1 PJ0       0.327900
      6 C7         -30.1690   -46.2990   -11.4220 ca         1 PJ0      -0.150000
      7 C8         -31.0820   -45.3300   -10.9710 ca         1 PJ0      -0.063000
      8 N10        -31.4850   -43.1380   -10.1040 nb         1 PJ0      -0.747000
      9 C11        -30.9890   -41.9710    -9.7110 ca         1 PJ0       0.598900
     10 N5         -28.3110   -44.8030   -11.0250 nb         1 PJ0      -0.643000
     11 C9         -30.6060   -44.0770   -10.5410 ca         1 PJ0       0.273000
     12 N12        -31.9770   -41.1650    -9.3060 nv         1 PJ0      -1.043900
     13 H1         -29.6090   -39.4580    -9.7910 hc         1 PJ0       0.045367
     14 H2         -29.3410   -40.1190    -8.1670 hc         1 PJ0       0.045367
     15 H3         -28.0440   -40.1610    -9.3680 hc         1 PJ0       0.045367
     16 H4         -27.6450   -42.4020   -10.1750 ha         1 PJ0       0.133000
     17 H5         -28.0700   -46.7300   -11.7770 h4         1 PJ0       0.020100
     18 H6         -30.5130   -47.2730   -11.7590 ha         1 PJ0       0.124000
     19 H7         -32.1470   -45.5440   -10.9540 ha         1 PJ0       0.133000
     20 H8         -32.8640   -41.6280    -9.1500 hn         1 PJ0       0.468500
     21 H9         -31.7390   -40.4090    -8.6750 hn         1 PJ0       0.468500
@<TRIPOS>BOND
     1     1     2 1   
     2     1    13 1   
     3     1    14 1   
     4     1    15 1   
     5     2     3 ar  
     6     2     9 ar  
     7     3     4 ar  
     8     3    16 1   
     9     4    10 ar  
    10     4    11 ar  
    11     5     6 ar  
    12     5    10 ar  
    13     5    17 1   
    14     6     7 ar  
    15     6    18 1   
    16     7    11 ar  
    17     7    19 1   
    18     8     9 ar  
    19     8    11 ar  
    20     9    12 1   
    21    12    20 1   
    22    12    21 1   
@<TRIPOS>SUBSTRUCTURE
     1 PJ0         1 TEMP              0 ****  ****    0 ROOT
