@<TRIPOS>MOLECULE
PJ0
   21    22     1     0     0
SMALL
abcg2


@<TRIPOS>ATOM
      1 C1         -29.1700   -40.3140    -9.2370 c3         1 PJ0      -0.042800
      2 C2         -29.6180   -41.6670    -9.7010 ca         1 PJ0      -0.158300
      3 C3         -28.7430   -42.6090   -10.1500 ca         1 PJ0      -0.024000
      4 C4         -29.2020   -43.8740   -10.5950 ca         1 PJ0       0.189000
      5 C6         -28.7860   -45.9590   -11.4530 ca         1 PJ0       0.327900
      6 C7         -30.1530   -46.2950   -11.4300 ca         1 PJ0      -0.150000
      7 C8         -31.0620   -45.3760   -10.9690 ca         1 PJ0      -0.063000
      8 N10        -31.4770   -43.1870   -10.0750 nb         1 PJ0      -0.747000
      9 C11        -31.0200   -42.0120    -9.6880 ca         1 PJ0       0.598900
     10 N5         -28.3150   -44.7950   -11.0500 nb         1 PJ0      -0.643000
     11 C9         -30.5990   -44.1160   -10.5340 ca         1 PJ0       0.273000
     12 N12        -31.9380   -41.0720    -9.3070 nv         1 PJ0      -1.043900
     13 H1         -29.5690   -39.5230    -9.8800 hc         1 PJ0       0.045367
     14 H2         -29.5070   -40.0990    -8.2190 hc         1 PJ0       0.045367
     15 H3         -28.0830   -40.2410    -9.2620 hc         1 PJ0       0.045367
     16 H4         -27.6780   -42.4100   -10.1770 ha         1 PJ0       0.133000
     17 H5         -28.0610   -46.6800   -11.8170 h4         1 PJ0       0.020100
     18 H6         -30.4700   -47.2690   -11.7790 ha         1 PJ0       0.124000
     19 H7         -32.1200   -45.5930   -10.9260 ha         1 PJ0       0.133000
     20 H8         -32.8470   -41.4440    -9.0710 hn         1 PJ0       0.468500
     21 H9         -31.6250   -40.3400    -8.6900 hn         1 PJ0       0.468500
@<TRIPOS>BOND
     1     1     2 1   
     2     1    13 1   
     3     1    14 1   
     4     1    15 1   
     5     2     3 ar  
     6     2     9 ar  
     7     3     4 ar  
     8     3    16 1   
     9     4    10 ar  
    10     4    11 ar  
    11     5     6 ar  
    12     5    10 ar  
    13     5    17 1   
    14     6     7 ar  
    15     6    18 1   
    16     7    11 ar  
    17     7    19 1   
    18     8     9 ar  
    19     8    11 ar  
    20     9    12 1   
    21    12    20 1   
    22    12    21 1   
@<TRIPOS>SUBSTRUCTURE
     1 PJ0         1 TEMP              0 ****  ****    0 ROOT
