@<TRIPOS>MOLECULE
PJ1
   34    35     1     0     0
SMALL
abcg2


@<TRIPOS>ATOM
      1 C1          -1.0310    18.5790   -14.7210 ca         1 PJ1       0.324000
      2 C3          -2.1790    17.9470   -14.2180 ca         1 PJ1      -0.174500
      3 C11          3.3330    20.3220   -15.1220 c3         1 PJ1       0.076600
      4 C15          5.6630    19.4490   -14.7840 cc         1 PJ1      -0.245000
      5 C16          4.9890    19.6300   -16.8520 cc         1 PJ1       0.410400
      6 C17          6.6250    19.0050   -15.6450 cd         1 PJ1       0.235900
      7 C10         -3.3760    18.3600   -16.2560 ca         1 PJ1       0.076000
      8 C4          -1.1010    19.0900   -16.0300 ca         1 PJ1      -0.174500
      9 C5           1.0900    19.7230   -14.1950 c3         1 PJ1       0.186800
     10 C6           0.1820    18.0270   -12.6770 c3         1 PJ1       0.205100
     11 C7          -3.3330    17.8340   -14.9780 ca         1 PJ1      -0.062500
     12 C8          -2.2580    18.9890   -16.7810 ca         1 PJ1      -0.062500
     13 C9           2.3930    19.1780   -14.7810 c3         1 PJ1       0.139300
     14 N14          4.6230    19.8540   -15.5730 na         1 PJ1      -0.163500
     15 N18          6.1940    19.1260   -16.9360 nd         1 PJ1      -0.677000
     16 N2           0.1200    18.6710   -13.9700 nh         1 PJ1      -0.838400
     17 O12          2.1720    18.4430   -15.9570 oh         1 PJ1      -0.652000
     18 CL13        -4.8250    18.2250   -17.2070 cl         1 PJ1      -0.207000
     19 H1          -2.1940    17.5380   -13.2180 ha         1 PJ1       0.120500
     20 H3           2.8980    20.9400   -15.9090 h1         1 PJ1       0.066200
     21 H4           5.6300    19.5170   -13.7090 h4         1 PJ1       0.150000
     22 H5           4.3390    19.8630   -17.6820 h5         1 PJ1       0.057100
     23 H6           7.6010    18.6140   -15.4020 h4         1 PJ1       0.036100
     24 H7          -0.2360    19.5440   -16.4920 ha         1 PJ1       0.120500
     25 H8           1.3060    20.2230   -13.2460 h1         1 PJ1       0.054700
     26 H9           0.6710    20.4900   -14.8500 h1         1 PJ1       0.054700
     27 H10          1.2080    18.0530   -12.3150 h1         1 PJ1       0.038367
     28 H11         -0.4520    18.5120   -11.9260 h1         1 PJ1       0.038367
     29 H12         -0.1080    16.9790   -12.7440 h1         1 PJ1       0.038367
     30 H13         -4.1990    17.3410   -14.5560 ha         1 PJ1       0.127000
     31 H14         -2.2740    19.3920   -17.7860 ha         1 PJ1       0.127000
     32 H15          2.8780    18.5510   -14.0170 h1         1 PJ1       0.041700
     33 H16          1.6080    17.6940   -15.7350 ho         1 PJ1       0.464000
     34 H2           3.4750    20.9610   -14.2500 h1         1 PJ1       0.066200
@<TRIPOS>BOND
     1     1     2 ar  
     2     1     8 ar  
     3     1    16 1   
     4     2    11 ar  
     5     2    19 1   
     6     3    13 1   
     7     3    14 1   
     8     3    20 1   
     9     3    34 1   
    10     4     6 2   
    11     4    14 1   
    12     4    21 1   
    13     5    14 1   
    14     5    15 2   
    15     5    22 1   
    16     6    15 1   
    17     6    23 1   
    18     7    11 ar  
    19     7    12 ar  
    20     7    18 1   
    21     8    12 ar  
    22     8    24 1   
    23     9    13 1   
    24     9    16 1   
    25     9    25 1   
    26     9    26 1   
    27    10    16 1   
    28    10    27 1   
    29    10    28 1   
    30    10    29 1   
    31    11    30 1   
    32    12    31 1   
    33    13    17 1   
    34    13    32 1   
    35    17    33 1   
@<TRIPOS>SUBSTRUCTURE
     1 PJ1         1 TEMP              0 ****  ****    0 ROOT
