@<TRIPOS>MOLECULE
PJ1
   34    35     1     0     0
SMALL
No Charge or Current Charge


@<TRIPOS>ATOM
      1 C1          -1.0800    18.5320   -14.7440 ca         1 PJ1       0.324000
      2 C3          -2.3340    18.1250   -14.2430 ca         1 PJ1      -0.174500
      3 C11          3.2660    20.2250   -15.2220 c3         1 PJ1       0.076600
      4 C15          5.8080    20.2230   -15.0450 cc         1 PJ1      -0.245000
      5 C16          4.9480    19.0330   -16.7150 cc         1 PJ1       0.410400
      6 C17          6.8010    19.6320   -15.7820 cd         1 PJ1       0.235900
      7 C10         -3.4030    18.7090   -16.3500 ca         1 PJ1       0.076000
      8 C4          -1.0080    19.0260   -16.0620 ca         1 PJ1      -0.174500
      9 C5           1.1120    19.5380   -13.9590 c3         1 PJ1       0.186800
     10 C6           0.1790    17.4770   -12.8240 c3         1 PJ1       0.205100
     11 C7          -3.4900    18.2130   -15.0400 ca         1 PJ1      -0.062500
     12 C8          -2.1610    19.1150   -16.8630 ca         1 PJ1      -0.062500
     13 C9           2.4860    19.0830   -14.5260 c3         1 PJ1       0.139300
     14 N14          4.6250    19.8420   -15.6440 na         1 PJ1      -0.163500
     15 N18          6.2640    18.8960   -16.8190 nd         1 PJ1      -0.677000
     16 N2           0.0930    18.4420   -13.9490 nh         1 PJ1      -0.838400
     17 O12          2.2180    18.0070   -15.4300 oh         1 PJ1      -0.652000
     18 Cl13        -4.8470    18.8200   -17.3490 cl         1 PJ1      -0.207000
     19 H1          -2.4260    17.7490   -13.2290 ha         1 PJ1       0.120500
     20 H3           2.7070    20.5650   -16.1030 h1         1 PJ1       0.066200
     21 H4           5.8600    20.8630   -14.1730 h4         1 PJ1       0.150000
     22 H5           4.1980    18.5950   -17.3630 h5         1 PJ1       0.057100
     23 H6           7.8710    19.6960   -15.6250 h4         1 PJ1       0.036100
     24 H7          -0.0540    19.3360   -16.4800 ha         1 PJ1       0.120500
     25 H8           1.2600    19.9270   -12.9420 h1         1 PJ1       0.054700
     26 H9           0.7430    20.3850   -14.5540 h1         1 PJ1       0.054700
     27 H10          1.2260    17.2910   -12.5490 h1         1 PJ1       0.038367
     28 H11         -0.3450    17.8660   -11.9410 h1         1 PJ1       0.038367
     29 H12         -0.2660    16.5140   -13.1060 h1         1 PJ1       0.038367
     30 H13         -4.4530    17.9000   -14.6430 ha         1 PJ1       0.127000
     31 H14         -2.0920    19.4970   -17.8790 ha         1 PJ1       0.127000
     32 H15          3.0870    18.7110   -13.6850 h1         1 PJ1       0.041700
     33 H16          1.2970    17.7580   -15.1490 ho         1 PJ1       0.464000
     34 H2           3.3450    21.0740   -14.5320 h1         1 PJ1       0.066200
@<TRIPOS>BOND
     1     1     2 ar  
     2     1     8 ar  
     3     1    16 1   
     4     2    11 ar  
     5     2    19 1   
     6     3    13 1   
     7     3    14 1   
     8     3    20 1   
     9     3    34 1   
    10     4     6 2   
    11     4    14 1   
    12     4    21 1   
    13     5    14 1   
    14     5    15 2   
    15     5    22 1   
    16     6    15 1   
    17     6    23 1   
    18     7    11 ar  
    19     7    12 ar  
    20     7    18 1   
    21     8    12 ar  
    22     8    24 1   
    23     9    13 1   
    24     9    16 1   
    25     9    25 1   
    26     9    26 1   
    27    10    16 1   
    28    10    27 1   
    29    10    28 1   
    30    10    29 1   
    31    11    30 1   
    32    12    31 1   
    33    13    17 1   
    34    13    32 1   
    35    17    33 1   
@<TRIPOS>SUBSTRUCTURE
     1 PJ1         1 TEMP              0 ****  ****    0 ROOT
