@<TRIPOS>MOLECULE
PJ2
   53    53     1     0     0
SMALL
No Charge or Current Charge


@<TRIPOS>ATOM
      1 CAA          8.1070     3.9080    -0.6630 c3         1 PJ2      -0.088100
      2 OAB         -3.8350     3.8490    -0.9150 o          1 PJ2      -0.741500
      3 OAD         -5.8530     3.8090    -0.1620 o          1 PJ2      -0.741500
      4 OAE          2.3070     0.9270     1.4610 oh         1 PJ2      -0.647000
      5 CAF         -4.5510    -1.6720    -0.0050 c2         1 PJ2      -0.169200
      6 CAG         -3.6400    -2.4380    -0.6300 c2         1 PJ2      -0.269200
      7 CAH         -0.2100    -4.9260     0.1740 ce         1 PJ2      -0.332200
      8 CAI         -1.4310    -4.3950     0.3250 c2         1 PJ2      -0.134200
      9 CAK          6.5960     3.7270    -0.4220 c3         1 PJ2      -0.076400
     10 CAL         -4.2890    -0.3940     0.7690 c3         1 PJ2      -0.063200
     11 CAM         -2.1470    -2.1760    -0.7340 c3         1 PJ2      -0.020200
     12 CAN          2.3260    -1.1380     0.1790 c3         1 PJ2      -0.090200
     13 CAO          6.1730     2.2450    -0.3220 c3         1 PJ2      -0.076400
     14 CAP         -4.6080     0.8660    -0.0630 c3         1 PJ2      -0.048400
     15 CAQ          4.6580     2.0630    -0.0810 c3         1 PJ2      -0.072400
     16 CAR         -4.3490     2.1870     0.7020 c3         1 PJ2      -0.206400
     17 CAS          4.2370     0.5770     0.0170 c3         1 PJ2      -0.108400
     18 CAT         -4.7040     3.3920    -0.1880 c          1 PJ2       0.718000
     19 CAU          0.8470    -3.9280     0.1180 c          1 PJ2       0.574500
     20 CAV          0.1990    -2.5900     0.2610 ce         1 PJ2      -0.232400
     21 CAW          2.7150     0.3610     0.2090 c3         1 PJ2       0.166300
     22 CAX         -1.3220    -2.8660     0.3760 c5         1 PJ2      -0.007300
     23 HAA          8.6870     3.4670     0.1570 hc         1 PJ2       0.028367
     24 HAAA         8.4110     3.4280    -1.6000 hc         1 PJ2       0.028367
     25 HAAB         8.3590     4.9740    -0.7260 hc         1 PJ2       0.028367
     26 HOAE         2.8270     0.4770     2.1600 ho         1 PJ2       0.436000
     27 HAF         -5.6020    -1.9700    -0.0150 ha         1 PJ2       0.161000
     28 HAG         -3.9640    -3.3420    -1.1480 ha         1 PJ2       0.154000
     29 HAH          0.0220    -5.9870     0.1010 ha         1 PJ2       0.200000
     30 HAI         -2.3590    -4.9670     0.3950 ha         1 PJ2       0.192000
     31 HAJ          0.2350    -0.4820     0.4100 ha         1 PJ2       0.195000
     32 HAK          6.3180     4.2480     0.5030 hc         1 PJ2       0.039200
     33 HAKA         6.0450     4.2090    -1.2390 hc         1 PJ2       0.039200
     34 HAL         -4.8960    -0.3880     1.6830 hc         1 PJ2       0.034200
     35 HALA        -3.2440    -0.3470     1.1010 hc         1 PJ2       0.034200
     36 HAM         -1.7880    -2.5070    -1.7170 hc         1 PJ2       0.052200
     37 HAMA        -1.9560    -1.0960    -0.7080 hc         1 PJ2       0.052200
     38 HAN          2.8540    -1.6620     0.9850 hc         1 PJ2       0.065700
     39 HANA         2.6930    -1.5690    -0.7610 hc         1 PJ2       0.065700
     40 HAO          6.4550     1.7280    -1.2480 hc         1 PJ2       0.033700
     41 HAOA         6.7280     1.7670     0.4940 hc         1 PJ2       0.033700
     42 HAP         -4.0020     0.8530    -0.9780 hc         1 PJ2       0.042200
     43 HAPA        -5.6590     0.8300    -0.3780 hc         1 PJ2       0.042200
     44 HAQ          4.3790     2.5860     0.8420 hc         1 PJ2       0.047700
     45 HAQA         4.1040     2.5410    -0.8990 hc         1 PJ2       0.047700
     46 HAR         -5.0000     2.1560     1.5840 hc         1 PJ2       0.015200
     47 HARA        -3.2780     2.1900     0.9430 hc         1 PJ2       0.015200
     48 HAS          4.5490     0.0670    -0.9030 hc         1 PJ2       0.040200
     49 HASA         4.7820     0.0980     0.8400 hc         1 PJ2       0.040200
     50 HAW          2.1920     0.8630    -0.6190 h1         1 PJ2       0.077700
     51 HAX         -1.7010    -2.4960     1.3370 hc         1 PJ2       0.081700
     52 CAJ          0.8300    -1.3900     0.2910 c2         1 PJ2      -0.114200
     53 OAC          2.0380    -4.1730    -0.0140 o          1 PJ2      -0.544100
@<TRIPOS>BOND
     1     1     9 1   
     2     1    23 1   
     3     1    24 1   
     4     1    25 1   
     5     2    18 1   
     6     3    18 1   
     7     4    21 1   
     8     4    26 1   
     9     5     6 2   
    10     5    10 1   
    11     5    27 1   
    12     6    11 1   
    13     6    28 1   
    14     7     8 2   
    15     7    19 1   
    16     7    29 1   
    17     8    22 1   
    18     8    30 1   
    19     9    13 1   
    20     9    32 1   
    21     9    33 1   
    22    10    14 1   
    23    10    34 1   
    24    10    35 1   
    25    11    22 1   
    26    11    36 1   
    27    11    37 1   
    28    12    21 1   
    29    12    38 1   
    30    12    39 1   
    31    12    52 1   
    32    13    15 1   
    33    13    40 1   
    34    13    41 1   
    35    14    16 1   
    36    14    42 1   
    37    14    43 1   
    38    15    17 1   
    39    15    44 1   
    40    15    45 1   
    41    16    18 1   
    42    16    46 1   
    43    16    47 1   
    44    17    21 1   
    45    17    48 1   
    46    17    49 1   
    47    19    20 1   
    48    19    53 2   
    49    20    22 1   
    50    20    52 2   
    51    21    50 1   
    52    22    51 1   
    53    31    52 1   
@<TRIPOS>SUBSTRUCTURE
     1 PJ2         1 TEMP              0 ****  ****    0 ROOT
