@<TRIPOS>MOLECULE
PJ2
   53    53     1     0     0
SMALL
abcg2


@<TRIPOS>ATOM
      1 CAA          8.2360     3.5670    -0.6850 c3         1 PJ2      -0.088100
      2 OAB         -5.8750     3.3470    -0.7010 o          1 PJ2      -0.741500
      3 OAD         -5.4290     4.2300     1.2930 o          1 PJ2      -0.741500
      4 OAE          2.0190     1.3740     0.8680 oh         1 PJ2      -0.647000
      5 CAF         -4.3070    -1.5990    -0.4510 c2         1 PJ2      -0.169200
      6 CAG         -3.3020    -2.2230    -1.0630 c2         1 PJ2      -0.269200
      7 CAH         -0.1110    -4.8030     0.0460 ce         1 PJ2      -0.332200
      8 CAI         -1.2970    -4.1890     0.0630 c2         1 PJ2      -0.134200
      9 CAK          6.7180     3.4440    -0.7150 c3         1 PJ2      -0.076400
     10 CAL         -4.2080    -0.4510     0.5030 c3         1 PJ2      -0.063200
     11 CAM         -1.8430    -1.9130    -0.9000 c3         1 PJ2      -0.020200
     12 CAN          2.3580    -1.0280     0.6400 c3         1 PJ2      -0.090200
     13 CAO          6.2270     2.0830    -0.2360 c3         1 PJ2      -0.076400
     14 CAP         -4.8250     0.8300    -0.0630 c3         1 PJ2      -0.048400
     15 CAQ          4.7100     1.9450    -0.2640 c3         1 PJ2      -0.072400
     16 CAR         -4.8140     1.9700     0.9410 c3         1 PJ2      -0.206400
     17 CAS          4.2390     0.5840     0.2330 c3         1 PJ2      -0.108400
     18 CAT         -5.4280     3.2970     0.4620 c          1 PJ2       0.718000
     19 CAU          0.9660    -3.8200     0.2400 c          1 PJ2       0.574500
     20 CAV          0.3030    -2.4960     0.3600 ce         1 PJ2      -0.232400
     21 CAW          2.7310     0.3780     0.1610 c3         1 PJ2       0.166300
     22 CAX         -1.1890    -2.7060     0.2480 c5         1 PJ2      -0.007300
     23 HAA          8.6230     3.4130     0.3240 hc         1 PJ2       0.028367
     24 HAAA         8.7040     2.8240    -1.3330 hc         1 PJ2       0.028367
     25 HAAB         8.5660     4.5520    -1.0180 hc         1 PJ2       0.028367
     26 HOAE         2.3000     1.3470     1.7890 ho         1 PJ2       0.436000
     27 HAF         -5.3180    -1.9350    -0.6690 ha         1 PJ2       0.161000
     28 HAG         -3.5450    -3.0460    -1.7280 ha         1 PJ2       0.154000
     29 HAH          0.0650    -5.8630    -0.0750 ha         1 PJ2       0.200000
     30 HAI         -2.2530    -4.6850    -0.0450 ha         1 PJ2       0.192000
     31 HAJ          0.2450    -0.4440     0.6230 ha         1 PJ2       0.195000
     32 HAK          6.2730     4.2280    -0.0960 hc         1 PJ2       0.039200
     33 HAKA         6.3580     3.6220    -1.7330 hc         1 PJ2       0.039200
     34 HAL         -4.7320    -0.7180     1.4270 hc         1 PJ2       0.034200
     35 HALA        -3.1700    -0.2640     0.7890 hc         1 PJ2       0.034200
     36 HAM         -1.3120    -2.1430    -1.8270 hc         1 PJ2       0.052200
     37 HAMA        -1.6920    -0.8480    -0.7090 hc         1 PJ2       0.052200
     38 HAN          2.6660    -1.1310     1.6890 hc         1 PJ2       0.065700
     39 HANA         2.9370    -1.7690     0.0890 hc         1 PJ2       0.065700
     40 HAO          6.6760     1.2980    -0.8540 hc         1 PJ2       0.033700
     41 HAOA         6.5880     1.9080     0.7830 hc         1 PJ2       0.033700
     42 HAP         -4.2810     1.1180    -0.9660 hc         1 PJ2       0.042200
     43 HAPA        -5.8520     0.6250    -0.3800 hc         1 PJ2       0.042200
     44 HAQ          4.2630     2.7380     0.3420 hc         1 PJ2       0.047700
     45 HAQA         4.3510     2.1040    -1.2880 hc         1 PJ2       0.047700
     46 HAR         -5.3370     1.6600     1.8530 hc         1 PJ2       0.015200
     47 HARA        -3.7840     2.1690     1.2630 hc         1 PJ2       0.015200
     48 HAS          4.7220    -0.2020    -0.3560 hc         1 PJ2       0.040200
     49 HASA         4.5730     0.4330     1.2680 hc         1 PJ2       0.040200
     50 HAW          2.4130     0.4860    -0.8820 h1         1 PJ2       0.077700
     51 HAX         -1.6940    -2.4240     1.1810 hc         1 PJ2       0.081700
     52 CAJ          0.8950    -1.3120     0.5370 c2         1 PJ2      -0.114200
     53 OAC          2.1580    -4.0640     0.3030 o          1 PJ2      -0.544100
@<TRIPOS>BOND
     1     1     9 1   
     2     1    23 1   
     3     1    24 1   
     4     1    25 1   
     5     2    18 1   
     6     3    18 1   
     7     4    21 1   
     8     4    26 1   
     9     5     6 2   
    10     5    10 1   
    11     5    27 1   
    12     6    11 1   
    13     6    28 1   
    14     7     8 2   
    15     7    19 1   
    16     7    29 1   
    17     8    22 1   
    18     8    30 1   
    19     9    13 1   
    20     9    32 1   
    21     9    33 1   
    22    10    14 1   
    23    10    34 1   
    24    10    35 1   
    25    11    22 1   
    26    11    36 1   
    27    11    37 1   
    28    12    21 1   
    29    12    38 1   
    30    12    39 1   
    31    12    52 1   
    32    13    15 1   
    33    13    40 1   
    34    13    41 1   
    35    14    16 1   
    36    14    42 1   
    37    14    43 1   
    38    15    17 1   
    39    15    44 1   
    40    15    45 1   
    41    16    18 1   
    42    16    46 1   
    43    16    47 1   
    44    17    21 1   
    45    17    48 1   
    46    17    49 1   
    47    19    20 1   
    48    19    53 2   
    49    20    22 1   
    50    20    52 2   
    51    21    50 1   
    52    22    51 1   
    53    31    52 1   
@<TRIPOS>SUBSTRUCTURE
     1 PJ2         1 TEMP              0 ****  ****    0 ROOT
