@<TRIPOS>MOLECULE
PJ4
   36    38     1     0     0
SMALL
bcc


@<TRIPOS>ATOM
      1 C1           5.9480    24.8260     5.0500 ca         1 PJ4      -0.108300
      2 C2           6.0290    25.2000     6.5170 c6         1 PJ4       0.441000
      3 C3           6.8970    23.9910     4.4730 ca         1 PJ4      -0.079300
      4 C11          4.0030    23.9940     7.1880 c6         1 PJ4       0.164300
      5 C12          7.7520    23.6100     6.7510 c2         1 PJ4       0.510300
      6 C13          5.8070    24.2190     2.3320 ca         1 PJ4      -0.118000
      7 C14          3.3350    25.8570     9.0090 c6         1 PJ4       0.154300
      8 C15          3.8540    23.5220     8.6280 c6         1 PJ4       0.154300
      9 C10          4.6850    26.0320     8.3460 c6         1 PJ4       0.164300
     10 C4           4.9310    25.3550     4.2580 ca         1 PJ4      -0.093000
     11 C7           8.0050    23.4060     5.2990 c6         1 PJ4      -0.116400
     12 C8           6.8160    23.6870     3.1150 ca         1 PJ4      -0.125000
     13 C9           4.8600    25.0600     2.9070 ca         1 PJ4      -0.132000
     14 N17          3.1520    24.4880     9.4690 n3         1 PJ4      -0.725600
     15 N5           4.7280    25.2640     7.1110 n3         1 PJ4      -0.741600
     16 N6           6.9300    24.3600     7.3060 n2         1 PJ4      -0.624900
     17 CL16         8.8050    22.6450     7.7810 cl         1 PJ4      -0.160300
     18 H1           6.4520    26.2110     6.5820 h2         1 PJ4       0.086700
     19 H2           3.0120    24.1030     6.7330 h1         1 PJ4       0.049700
     20 H3           4.5200    23.2260     6.6090 h1         1 PJ4       0.049700
     21 H4           5.7540    23.9770     1.2780 ha         1 PJ4       0.134000
     22 H5           3.2520    26.5460     9.8540 h1         1 PJ4       0.048450
     23 H6           2.5570    26.1550     8.2860 h1         1 PJ4       0.048450
     24 H7           3.3160    22.5720     8.6450 h1         1 PJ4       0.048450
     25 H8           4.8490    23.3190     9.0360 h1         1 PJ4       0.048450
     26 H9           1.6330    23.1840    10.0730 h1         1 PJ4       0.028033
     27 H10          1.3220    24.8860    10.3860 h1         1 PJ4       0.028033
     28 H11          1.1490    24.2550     8.7460 h1         1 PJ4       0.028033
     29 H12          5.4760    25.7480     9.0550 h1         1 PJ4       0.049700
     30 H13          4.8380    27.0900     8.1140 h1         1 PJ4       0.049700
     31 H14          4.1890    25.9970     4.7140 ha         1 PJ4       0.151000
     32 H15          8.1240    22.3410     5.0920 hc         1 PJ4       0.081200
     33 H16          8.9650    23.8690     5.0480 hc         1 PJ4       0.081200
     34 H17          7.5530    23.0280     2.6720 ha         1 PJ4       0.132000
     35 H18          4.0660    25.4800     2.3040 ha         1 PJ4       0.134000
     36 C18          1.7530    24.1880     9.6650 c3         1 PJ4       0.158100
@<TRIPOS>BOND
     1     1     2 1   
     2     1     3 ar  
     3     1    10 ar  
     4     2    15 1   
     5     2    16 1   
     6     2    18 1   
     7     3    11 1   
     8     3    12 ar  
     9     4     8 1   
    10     4    15 1   
    11     4    19 1   
    12     4    20 1   
    13     5    11 1   
    14     5    16 2   
    15     5    17 1   
    16     6    12 ar  
    17     6    13 ar  
    18     6    21 1   
    19     7     9 1   
    20     7    14 1   
    21     7    22 1   
    22     7    23 1   
    23     8    14 1   
    24     8    24 1   
    25     8    25 1   
    26     9    15 1   
    27     9    29 1   
    28     9    30 1   
    29    10    13 ar  
    30    10    31 1   
    31    11    32 1   
    32    11    33 1   
    33    12    34 1   
    34    13    35 1   
    35    14    36 1   
    36    26    36 1   
    37    27    36 1   
    38    28    36 1   
@<TRIPOS>SUBSTRUCTURE
     1 PJ4         1 TEMP              0 ****  ****    0 ROOT
