@<TRIPOS>MOLECULE
PJ4
   36    38     1     0     0
SMALL
No Charge or Current Charge


@<TRIPOS>ATOM
      1 C1           5.9830    25.0370     4.9310 ca         1 PJ4      -0.108300
      2 C2           6.0010    25.5030     6.4000 c6         1 PJ4       0.441000
      3 C3           6.6890    23.8930     4.5120 ca         1 PJ4      -0.079300
      4 C11          4.1180    24.0010     7.1510 c6         1 PJ4       0.164300
      5 C12          7.6190    23.7770     6.8740 c2         1 PJ4       0.510300
      6 C13          5.9020    24.2240     2.2290 ca         1 PJ4      -0.100000
      7 C14          3.2680    25.7900     9.1130 c6         1 PJ4       0.154300
      8 C15          4.0920    23.4820     8.6260 c6         1 PJ4       0.154300
      9 C10          4.5520    26.1810     8.3170 c6         1 PJ4       0.164300
     10 C4           5.2370    25.7700     3.9860 ca         1 PJ4      -0.075000
     11 C7           7.5000    23.0990     5.5230 c6         1 PJ4      -0.116400
     12 C8           6.6470    23.4880     3.1650 ca         1 PJ4      -0.107000
     13 C9           5.1970    25.3660     2.6400 ca         1 PJ4      -0.114000
     14 N17          3.2630    24.3460     9.5390 n3         1 PJ4      -0.725600
     15 N5           4.6650    25.4020     7.0340 n3         1 PJ4      -0.741600
     16 N6           6.9830    24.8260     7.2650 n2         1 PJ4      -0.624900
     17 Cl16         8.7370    23.0020     7.9640 cl         1 PJ4      -0.160300
     18 H1           6.2770    26.5700     6.3650 h2         1 PJ4       0.086700
     19 H2           3.0870    23.9830     6.7710 h1         1 PJ4       0.049700
     20 H3           4.6840    23.2920     6.5290 h1         1 PJ4       0.049700
     21 H4           5.8710    23.9090     1.1880 ha         1 PJ4       0.116000
     22 H5           3.1730    26.4430     9.9930 h1         1 PJ4       0.048450
     23 H6           2.4010    26.0020     8.4690 h1         1 PJ4       0.048450
     24 H7           3.7370    22.4410     8.6390 h1         1 PJ4       0.048450
     25 H8           5.1290    23.4550     8.9920 h1         1 PJ4       0.048450
     26 H9           1.9310    22.8100    10.1780 h1         1 PJ4       0.028033
     27 H10          1.3630    24.4630    10.4970 h1         1 PJ4       0.028033
     28 H11          1.3190    23.8120     8.8400 h1         1 PJ4       0.028033
     29 H12          5.4180    26.0040     8.9710 h1         1 PJ4       0.049700
     30 H13          4.5310    27.2600     8.1030 h1         1 PJ4       0.049700
     31 H14          4.6830    26.6530     4.2990 ha         1 PJ4       0.133000
     32 H15          7.0440    22.1110     5.6650 hc         1 PJ4       0.081200
     33 H16          8.5090    22.9230     5.1280 hc         1 PJ4       0.081200
     34 H17          7.1930    22.6030     2.8430 ha         1 PJ4       0.114000
     35 H18          4.6170    25.9370     1.9180 ha         1 PJ4       0.116000
     36 C18          1.8970    23.8310     9.7740 c3         1 PJ4       0.158100
@<TRIPOS>BOND
     1     1     2 1   
     2     1     3 ar  
     3     1    10 ar  
     4     2    15 1   
     5     2    16 1   
     6     2    18 1   
     7     3    11 1   
     8     3    12 ar  
     9     4     8 1   
    10     4    15 1   
    11     4    19 1   
    12     4    20 1   
    13     5    11 1   
    14     5    16 2   
    15     5    17 1   
    16     6    12 ar  
    17     6    13 ar  
    18     6    21 1   
    19     7     9 1   
    20     7    14 1   
    21     7    22 1   
    22     7    23 1   
    23     8    14 1   
    24     8    24 1   
    25     8    25 1   
    26     9    15 1   
    27     9    29 1   
    28     9    30 1   
    29    10    13 ar  
    30    10    31 1   
    31    11    32 1   
    32    11    33 1   
    33    12    34 1   
    34    13    35 1   
    35    14    36 1   
    36    26    36 1   
    37    27    36 1   
    38    28    36 1   
@<TRIPOS>SUBSTRUCTURE
     1 PJ4         1 TEMP              0 ****  ****    0 ROOT
