@<TRIPOS>MOLECULE
PJ5
   22    22     1     0     0
SMALL
No Charge or Current Charge


@<TRIPOS>ATOM
      1 O1          34.8830   -28.7400     5.9860 oh         1 PJ5      -0.719000
      2 C1          33.8340   -28.0330     5.3130 c5         1 PJ5       0.144300
      3 C6          33.1500   -27.0050     6.2480 c5         1 PJ5      -0.107400
      4 C2          34.3530   -27.0570     4.2130 c5         1 PJ5       0.143300
      5 O2          35.1980   -27.7160     3.2600 oh         1 PJ5      -0.632000
      6 C3          35.1040   -25.9870     5.0820 c5         1 PJ5       0.167300
      7 O3          35.2970   -24.7450     4.3900 oh         1 PJ5      -0.707000
      8 C4          34.1890   -25.8300     6.3520 c5         1 PJ5      -0.112700
      9 C5          34.9800   -25.7920     7.6840 c3         1 PJ5       0.169600
     10 O5          35.6760   -27.0290     7.8900 oh         1 PJ5      -0.683000
     11 HA          35.1870   -28.1300     6.7220 ho         1 PJ5       0.531000
     12 H1          33.0990   -28.7400     4.9010 h1         1 PJ5       0.069700
     13 H6          32.2110   -26.6520     5.8050 hc         1 PJ5       0.056200
     14 H6'1        32.8870   -27.4330     7.2230 hc         1 PJ5       0.056200
     15 H2          33.5040   -26.5910     3.6910 h1         1 PJ5       0.039700
     16 HB          35.6530   -28.4260     3.7670 ho         1 PJ5       0.446000
     17 H3          36.0830   -26.3950     5.3730 h1         1 PJ5       0.065700
     18 HC          35.8900   -24.1930     4.9490 ho         1 PJ5       0.501000
     19 H4          33.6450   -24.8780     6.3140 hc         1 PJ5       0.067700
     20 H5'1        35.6880   -24.9530     7.6570 h1         1 PJ5       0.024700
     21 H5'2        34.2780   -25.6110     8.5090 h1         1 PJ5       0.024700
     22 H5          36.1680   -26.9350     8.7390 ho         1 PJ5       0.455000
@<TRIPOS>BOND
     1     1     2 1   
     2     1    11 1   
     3     2     3 1   
     4     2     4 1   
     5     2    12 1   
     6     3     8 1   
     7     3    13 1   
     8     3    14 1   
     9     4     5 1   
    10     4     6 1   
    11     4    15 1   
    12     5    16 1   
    13     6     7 1   
    14     6     8 1   
    15     6    17 1   
    16     7    18 1   
    17     8     9 1   
    18     8    19 1   
    19     9    10 1   
    20     9    20 1   
    21     9    21 1   
    22    10    22 1   
@<TRIPOS>SUBSTRUCTURE
     1 PJ5         1 TEMP              0 ****  ****    0 ROOT
