@<TRIPOS>MOLECULE
PJ5
   22    22     1     0     0
SMALL
bcc


@<TRIPOS>ATOM
      1 O1          34.8910   -28.8360     6.0530 oh         1 PJ5      -0.596800
      2 C1          33.9140   -28.0580     5.4030 c5         1 PJ5       0.121100
      3 C6          33.2340   -27.0430     6.3200 c5         1 PJ5      -0.107400
      4 C2          34.5080   -27.1280     4.3370 c5         1 PJ5       0.120100
      5 O2          35.4460   -27.7020     3.4690 oh         1 PJ5      -0.569800
      6 C3          35.1340   -26.0020     5.1450 c5         1 PJ5       0.144100
      7 O3          35.2820   -24.8540     4.3410 oh         1 PJ5      -0.584800
      8 C4          34.1850   -25.8220     6.3580 c5         1 PJ5      -0.112700
      9 C5          34.9250   -25.6780     7.6750 c3         1 PJ5       0.146400
     10 O5          35.6720   -26.8580     7.9140 oh         1 PJ5      -0.620800
     11 HA          35.2800   -28.3040     6.7650 ho         1 PJ5       0.432000
     12 H1          33.1950   -28.7550     4.9600 h1         1 PJ5       0.069700
     13 H6          32.2760   -26.7520     5.8860 hc         1 PJ5       0.056200
     14 H6'1        33.0160   -27.4560     7.3080 hc         1 PJ5       0.056200
     15 H2          33.6560   -26.7040     3.7800 h1         1 PJ5       0.039700
     16 HB          34.9900   -28.3270     2.8980 ho         1 PJ5       0.407000
     17 H3          36.1190   -26.3410     5.4940 h1         1 PJ5       0.065700
     18 HC          35.7970   -24.2060     4.8300 ho         1 PJ5       0.402000
     19 H4          33.6120   -24.9020     6.2180 hc         1 PJ5       0.067700
     20 H5'1        35.5860   -24.8020     7.6350 h1         1 PJ5       0.024700
     21 H5'2        34.2010   -25.5030     8.4780 h1         1 PJ5       0.024700
     22 H5          36.0370   -26.8380     8.8030 ho         1 PJ5       0.416000
@<TRIPOS>BOND
     1     1     2 1   
     2     1    11 1   
     3     2     3 1   
     4     2     4 1   
     5     2    12 1   
     6     3     8 1   
     7     3    13 1   
     8     3    14 1   
     9     4     5 1   
    10     4     6 1   
    11     4    15 1   
    12     5    16 1   
    13     6     7 1   
    14     6     8 1   
    15     6    17 1   
    16     7    18 1   
    17     8     9 1   
    18     8    19 1   
    19     9    10 1   
    20     9    20 1   
    21     9    21 1   
    22    10    22 1   
@<TRIPOS>SUBSTRUCTURE
     1 PJ5         1 TEMP              0 ****  ****    0 ROOT
