@<TRIPOS>MOLECULE
PJ6
   43    46     1     0     0
SMALL
No Charge or Current Charge


@<TRIPOS>ATOM
      1 N1           6.8760     1.0500    17.6410 nb         1 PJ6      -0.651000
      2 C4          11.2730     0.7440    23.3380 ca         1 PJ6       0.169100
      3 C5          12.4920     1.4420    23.3210 ca         1 PJ6      -0.138000
      4 C6          13.4910     1.1050    22.3930 ca         1 PJ6      -0.057000
      5 C7          13.2700     0.0590    21.4840 ca         1 PJ6       0.084000
      6 C8          12.0590    -0.6510    21.5050 ca         1 PJ6      -0.044000
      7 C10          9.0080    -0.8690    21.0720 c          1 PJ6       0.607100
      8 C13          5.6870     1.6250    17.9250 ca         1 PJ6       0.356900
      9 C15          3.9320     2.3430    19.4670 ca         1 PJ6      -0.084000
     10 C17          4.1670     1.9130    21.8490 ca         1 PJ6      -0.094000
     11 O2           9.3020    -1.4930    20.0540 o          1 PJ6      -0.575100
     12 C1           9.7300    -1.1500    22.4600 c6         1 PJ6       0.166300
     13 C9          11.0440    -0.3240    22.4350 ca         1 PJ6      -0.183300
     14 O1          10.3320     1.1180    24.2670 os         1 PJ6      -0.345100
     15 C3           8.9630     0.7430    24.0620 c6         1 PJ6       0.160600
     16 C2           8.8660    -0.7570    23.7130 c6         1 PJ6      -0.131400
     17 O           10.1290    -2.5600    22.5220 os         1 PJ6      -0.486000
     18 C           10.9620    -3.0350    23.6080 c3         1 PJ6       0.151900
     19 C11          7.1700     0.5850    20.0200 ca         1 PJ6      -0.074000
     20 C19          5.9260     1.1990    20.3070 ca         1 PJ6      -0.002000
     21 C18          5.4090     1.2950    21.6200 ca         1 PJ6      -0.086000
     22 C16          3.4300     2.4370    20.7750 ca         1 PJ6      -0.106000
     23 C14          5.1760     1.7250    19.2330 ca         1 PJ6      -0.090000
     24 C12          7.5950     0.5450    18.6690 ca         1 PJ6       0.308900
     25 H1          12.6580     2.2510    24.0270 ha         1 PJ6       0.135000
     26 H2          14.4320     1.6500    22.3780 ha         1 PJ6       0.133000
     27 H3          11.9180    -1.4700    20.8030 ha         1 PJ6       0.135000
     28 H4           5.1300     2.0210    17.0770 h4         1 PJ6       0.021100
     29 H5           3.3550     2.7490    18.6390 ha         1 PJ6       0.118000
     30 H6           3.7750     1.9830    22.8610 ha         1 PJ6       0.115000
     31 H7           8.5470     1.3710    23.2620 h1         1 PJ6       0.073700
     32 H8           8.3960     0.9570    24.9790 h1         1 PJ6       0.073700
     33 H9           7.8170    -1.0480    23.5640 hc         1 PJ6       0.066700
     34 H10          9.1890    -1.3060    24.6030 hc         1 PJ6       0.066700
     35 H11         11.2820    -4.0660    23.4100 h1         1 PJ6       0.041367
     36 H12         11.8660    -2.4250    23.7240 h1         1 PJ6       0.041367
     37 H13         10.4200    -3.0430    24.5610 h1         1 PJ6       0.041367
     38 H14          7.7630     0.4510    21.9850 hn         1 PJ6       0.182000
     39 H15          5.9500     0.8930    22.4720 ha         1 PJ6       0.119000
     40 H16          2.4690     2.9140    20.9560 ha         1 PJ6       0.117000
     41 H17          8.5570     0.1220    18.3880 h4         1 PJ6       0.024100
     42 N            7.9730     0.0610    21.0780 ns         1 PJ6      -0.150000
     43 Cl          14.5190    -0.3710    20.3220 cl         1 PJ6      -0.210000
@<TRIPOS>BOND
     1     1     8 ar  
     2     1    24 ar  
     3     2     3 ar  
     4     2    13 ar  
     5     2    14 1   
     6     3     4 ar  
     7     3    25 1   
     8     4     5 ar  
     9     4    26 1   
    10     5     6 ar  
    11     5    43 1   
    12     6    13 ar  
    13     6    27 1   
    14     7    11 2   
    15     7    12 1   
    16     7    42 1   
    17     8    23 ar  
    18     8    28 1   
    19     9    22 ar  
    20     9    23 ar  
    21     9    29 1   
    22    10    21 ar  
    23    10    22 ar  
    24    10    30 1   
    25    12    13 1   
    26    12    16 1   
    27    12    17 1   
    28    14    15 1   
    29    15    16 1   
    30    15    31 1   
    31    15    32 1   
    32    16    33 1   
    33    16    34 1   
    34    17    18 1   
    35    18    35 1   
    36    18    36 1   
    37    18    37 1   
    38    19    20 ar  
    39    19    24 ar  
    40    19    42 1   
    41    20    21 ar  
    42    20    23 ar  
    43    21    39 1   
    44    22    40 1   
    45    24    41 1   
    46    38    42 1   
@<TRIPOS>SUBSTRUCTURE
     1 PJ6         1 TEMP              0 ****  ****    0 ROOT
