@<TRIPOS>MOLECULE
PJ6
   43    46     1     0     0
SMALL
abcg2


@<TRIPOS>ATOM
      1 N1           6.5380    -0.0090    17.5220 nb         1 PJ6      -0.651000
      2 C4          11.5730     0.7870    23.5830 ca         1 PJ6       0.169100
      3 C5          12.9140     1.1750    23.5070 ca         1 PJ6      -0.138000
      4 C6          13.7110     0.7470    22.4600 ca         1 PJ6      -0.057000
      5 C7          13.1590    -0.0720    21.4800 ca         1 PJ6       0.084000
      6 C8          11.8380    -0.4690    21.5470 ca         1 PJ6      -0.044000
      7 C10          8.7580     0.2560    21.6250 c          1 PJ6       0.607100
      8 C13          5.5500     0.8240    17.7600 ca         1 PJ6       0.356900
      9 C15          4.1330     2.1890    19.2600 ca         1 PJ6      -0.084000
     10 C17          4.5920     2.1640    21.6280 ca         1 PJ6      -0.094000
     11 O2           8.8530     1.4710    21.5170 o          1 PJ6      -0.575100
     12 C1           9.5880    -0.5170    22.6760 c6         1 PJ6       0.166300
     13 C9          11.0310    -0.0500    22.6040 ca         1 PJ6      -0.183300
     14 O1          10.8670     1.2460    24.6500 os         1 PJ6      -0.345100
     15 C3           9.4330     1.1440    24.5700 c6         1 PJ6       0.160600
     16 C2           9.0040    -0.2190    24.0700 c6         1 PJ6      -0.131400
     17 O            9.4720    -1.8990    22.3380 os         1 PJ6      -0.486000
     18 C           10.1320    -2.8440    23.1770 c3         1 PJ6       0.151900
     19 C11          7.0810    -0.0030    19.8670 ca         1 PJ6      -0.074000
     20 C19          6.0050     0.8780    20.1540 ca         1 PJ6      -0.002000
     21 C18          5.6570     1.3180    21.4520 ca         1 PJ6      -0.086000
     22 C16          3.8260     2.6110    20.5270 ca         1 PJ6      -0.106000
     23 C14          5.2220     1.3110    19.0470 ca         1 PJ6      -0.090000
     24 C12          7.2960    -0.4080    18.5730 ca         1 PJ6       0.308900
     25 H1          13.3160     1.8180    24.2780 ha         1 PJ6       0.135000
     26 H2          14.7470     1.0510    22.4010 ha         1 PJ6       0.133000
     27 H3          11.4220    -1.1190    20.7890 ha         1 PJ6       0.135000
     28 H4           4.9550     1.1460    16.9110 h4         1 PJ6       0.021100
     29 H5           3.5500     2.5150    18.4080 ha         1 PJ6       0.118000
     30 H6           4.3300     2.4960    22.6250 ha         1 PJ6       0.115000
     31 H7           9.0660     1.9390    23.9210 h1         1 PJ6       0.073700
     32 H8           9.0770     1.3150    25.5840 h1         1 PJ6       0.073700
     33 H9           7.9150    -0.2800    24.0420 hc         1 PJ6       0.066700
     34 H10          9.3620    -0.9750    24.7680 hc         1 PJ6       0.066700
     35 H11         10.1270    -3.7840    22.6290 h1         1 PJ6       0.041367
     36 H12         11.1650    -2.5490    23.3720 h1         1 PJ6       0.041367
     37 H13          9.6060    -2.9780    24.1240 h1         1 PJ6       0.041367
     38 H14          8.0220    -1.5070    20.9940 hn         1 PJ6       0.182000
     39 H15          6.2330     0.9840    22.3030 ha         1 PJ6       0.119000
     40 H16          2.9940     3.2820    20.6930 ha         1 PJ6       0.117000
     41 H17          8.1130    -1.0870    18.3540 h4         1 PJ6       0.024100
     42 N            7.9150    -0.5060    20.8970 ns         1 PJ6      -0.150000
     43 CL          14.1570    -0.6100    20.1410 cl         1 PJ6      -0.210000
@<TRIPOS>BOND
     1     1     8 ar  
     2     1    24 ar  
     3     2     3 ar  
     4     2    13 ar  
     5     2    14 1   
     6     3     4 ar  
     7     3    25 1   
     8     4     5 ar  
     9     4    26 1   
    10     5     6 ar  
    11     5    43 1   
    12     6    13 ar  
    13     6    27 1   
    14     7    11 2   
    15     7    12 1   
    16     7    42 1   
    17     8    23 ar  
    18     8    28 1   
    19     9    22 ar  
    20     9    23 ar  
    21     9    29 1   
    22    10    21 ar  
    23    10    22 ar  
    24    10    30 1   
    25    12    13 1   
    26    12    16 1   
    27    12    17 1   
    28    14    15 1   
    29    15    16 1   
    30    15    31 1   
    31    15    32 1   
    32    16    33 1   
    33    16    34 1   
    34    17    18 1   
    35    18    35 1   
    36    18    36 1   
    37    18    37 1   
    38    19    20 ar  
    39    19    24 ar  
    40    19    42 1   
    41    20    21 ar  
    42    20    23 ar  
    43    21    39 1   
    44    22    40 1   
    45    24    41 1   
    46    38    42 1   
@<TRIPOS>SUBSTRUCTURE
     1 PJ6         1 TEMP              0 ****  ****    0 ROOT
