@<TRIPOS>MOLECULE
PJ7
   13    13     1     0     0
SMALL
abcg2


@<TRIPOS>ATOM
      1 N1           3.1950    -0.7150     0.2310 nv         1 PJ7      -1.027000
      2 O1          -2.1900    -1.3820    -0.0230 o          1 PJ7      -0.701500
      3 O2          -2.4910     0.8350    -0.1090 o          1 PJ7      -0.701500
      4 O3           0.1930     1.2280    -0.0100 os         1 PJ7      -0.207000
      5 C5           1.9170    -0.1820     0.1000 cc         1 PJ7       0.147000
      6 C6           1.5450     1.1270     0.0400 cd         1 PJ7       0.002900
      7 C7           0.6960    -0.9240     0.0790 cc         1 PJ7      -0.244000
      8 C8          -0.3150    -0.0180     0.0080 cd         1 PJ7       0.130500
      9 C9          -1.8030    -0.1980    -0.0460 c          1 PJ7       0.628500
     10 HN1          3.9220    -0.0740    -0.0480 hn         1 PJ7       0.406000
     11 HN1A         3.3090    -1.5800    -0.2750 hn         1 PJ7       0.406000
     12 H6           2.1090     2.0460     0.0320 h4         1 PJ7       0.022100
     13 H7           0.5920    -1.9980     0.1090 ha         1 PJ7       0.137000
@<TRIPOS>BOND
     1     1     5 1   
     2     1    10 1   
     3     1    11 1   
     4     2     9 1   
     5     3     9 1   
     6     4     6 1   
     7     4     8 1   
     8     5     6 2   
     9     5     7 1   
    10     6    12 1   
    11     7     8 2   
    12     7    13 1   
    13     8     9 1   
@<TRIPOS>SUBSTRUCTURE
     1 PJ7         1 TEMP              0 ****  ****    0 ROOT
