@<TRIPOS>MOLECULE
PJ7
   13    13     1     0     0
SMALL
No Charge or Current Charge


@<TRIPOS>ATOM
      1 N1           3.1390    -0.7210     0.0370 nv         1 PJ7      -1.027000
      2 O1          -2.1510    -1.4140    -0.0360 o          1 PJ7      -0.701500
      3 O2          -2.5780     0.6870    -0.0230 o          1 PJ7      -0.701500
      4 O3           0.1820     1.3490     0.0170 os         1 PJ7      -0.207000
      5 C5           1.9090    -0.1300     0.0270 cc         1 PJ7       0.147000
      6 C6           1.5500     1.1930     0.0330 cd         1 PJ7       0.002900
      7 C7           0.7180    -0.8640     0.0050 cc         1 PJ7      -0.244000
      8 C8          -0.3060     0.0540     0.0000 cd         1 PJ7       0.130500
      9 C9          -1.7830    -0.2460    -0.0210 c          1 PJ7       0.628500
     10 HN1          3.9870    -0.1550     0.0140 hn         1 PJ7       0.406000
     11 HN1A         3.2290    -1.7350    -0.0100 hn         1 PJ7       0.406000
     12 H6           2.1540     2.0910     0.0480 h4         1 PJ7       0.022100
     13 H7           0.6290    -1.9440    -0.0050 ha         1 PJ7       0.137000
@<TRIPOS>BOND
     1     1     5 1   
     2     1    10 1   
     3     1    11 1   
     4     2     9 1   
     5     3     9 1   
     6     4     6 1   
     7     4     8 1   
     8     5     6 2   
     9     5     7 1   
    10     6    12 1   
    11     7     8 2   
    12     7    13 1   
    13     8     9 1   
@<TRIPOS>SUBSTRUCTURE
     1 PJ7         1 TEMP              0 ****  ****    0 ROOT
