@<TRIPOS>MOLECULE
PJ8
   53    52     1     0     0
SMALL
No Charge or Current Charge


@<TRIPOS>ATOM
      1 C1          19.5670    48.6410    25.2950 c3         1 PJ8      -0.088100
      2 C2          20.8260    49.1220    24.5480 c3         1 PJ8      -0.075400
      3 C3          21.4440    50.3960    25.1630 c3         1 PJ8      -0.075900
      4 C4          22.7050    50.8790    24.4080 c3         1 PJ8      -0.074400
      5 C5          23.3990    52.1110    25.0410 c3         1 PJ8      -0.073400
      6 C6          22.5390    53.4000    25.1350 c3         1 PJ8      -0.071900
      7 C7          21.9500    53.9190    23.8000 c3         1 PJ8      -0.072900
      8 C8          23.0080    54.2880    22.7340 c3         1 PJ8      -0.075400
      9 C9          22.3870    54.8730    21.4460 c3         1 PJ8      -0.076400
     10 C10         23.4410    55.2360    20.3780 c3         1 PJ8      -0.075400
     11 C11         22.8160    55.8170    19.0880 c3         1 PJ8      -0.072900
     12 C12         23.8450    56.2730    18.0260 c3         1 PJ8      -0.071900
     13 C13         24.6890    55.1290    17.4170 c3         1 PJ8      -0.073400
     14 C14         25.6410    55.6120    16.3000 c3         1 PJ8      -0.074400
     15 C15         26.4870    54.4720    15.6920 c3         1 PJ8      -0.075900
     16 C16         27.4380    54.9540    14.5760 c3         1 PJ8      -0.075400
     17 C17         28.2830    53.8160    13.9690 c3         1 PJ8      -0.088100
     18 H1          19.1650    47.7360    24.8240 hc         1 PJ8       0.031033
     19 H2          19.8020    48.4080    26.3410 hc         1 PJ8       0.031033
     20 H3          18.7870    49.4120    25.2790 hc         1 PJ8       0.031033
     21 H4          21.5710    48.3170    24.5510 hc         1 PJ8       0.036200
     22 H5          20.5660    49.3130    23.4990 hc         1 PJ8       0.036200
     23 H6          20.6880    51.1900    25.1600 hc         1 PJ8       0.037200
     24 H7          21.7040    50.2020    26.2110 hc         1 PJ8       0.037200
     25 H8          23.4310    50.0570    24.3760 hc         1 PJ8       0.036700
     26 H9          22.4450    51.0980    23.3650 hc         1 PJ8       0.036700
     27 H10         23.7320    51.8430    26.0510 hc         1 PJ8       0.036950
     28 H11         24.3120    52.3290    24.4740 hc         1 PJ8       0.036950
     29 H12         23.1540    54.1930    25.5780 hc         1 PJ8       0.036450
     30 H13         21.7160    53.2310    25.8400 hc         1 PJ8       0.036450
     31 H14         21.3450    54.8080    24.0170 hc         1 PJ8       0.036950
     32 H15         21.2600    53.1730    23.3870 hc         1 PJ8       0.036950
     33 H16         23.5890    53.3960    22.4700 hc         1 PJ8       0.037450
     34 H17         23.7100    55.0160    23.1590 hc         1 PJ8       0.037450
     35 H18         21.8070    55.7690    21.7010 hc         1 PJ8       0.036200
     36 H19         21.6820    54.1450    21.0240 hc         1 PJ8       0.036200
     37 H20         24.0180    54.3360    20.1340 hc         1 PJ8       0.037450
     38 H21         24.1440    55.9650    20.7990 hc         1 PJ8       0.037450
     39 H22         22.1940    56.6790    19.3560 hc         1 PJ8       0.036950
     40 H23         22.1440    55.0730    18.6420 hc         1 PJ8       0.036950
     41 H24         24.5130    57.0220    18.4700 hc         1 PJ8       0.036450
     42 H25         23.3030    56.7790    17.2180 hc         1 PJ8       0.036450
     43 H26         24.0170    54.3620    17.0110 hc         1 PJ8       0.036950
     44 H27         25.2850    54.6520    18.2040 hc         1 PJ8       0.036950
     45 H28         26.3100    56.3810    16.7050 hc         1 PJ8       0.036700
     46 H29         25.0520    56.0860    15.5050 hc         1 PJ8       0.036700
     47 H30         25.8170    53.7020    15.2880 hc         1 PJ8       0.037200
     48 H31         27.0760    53.9970    16.4870 hc         1 PJ8       0.037200
     49 H32         28.1110    55.7220    14.9770 hc         1 PJ8       0.036200
     50 H33         26.8530    55.4270    13.7780 hc         1 PJ8       0.036200
     51 H34         28.9410    54.2060    13.1830 hc         1 PJ8       0.031033
     52 H35         28.9080    53.3450    14.7380 hc         1 PJ8       0.031033
     53 H36         27.6380    53.0470    13.5270 hc         1 PJ8       0.031033
@<TRIPOS>BOND
     1     1     2 1   
     2     1    18 1   
     3     1    19 1   
     4     1    20 1   
     5     2     3 1   
     6     2    21 1   
     7     2    22 1   
     8     3     4 1   
     9     3    23 1   
    10     3    24 1   
    11     4     5 1   
    12     4    25 1   
    13     4    26 1   
    14     5     6 1   
    15     5    27 1   
    16     5    28 1   
    17     6     7 1   
    18     6    29 1   
    19     6    30 1   
    20     7     8 1   
    21     7    31 1   
    22     7    32 1   
    23     8     9 1   
    24     8    33 1   
    25     8    34 1   
    26     9    10 1   
    27     9    35 1   
    28     9    36 1   
    29    10    11 1   
    30    10    37 1   
    31    10    38 1   
    32    11    12 1   
    33    11    39 1   
    34    11    40 1   
    35    12    13 1   
    36    12    41 1   
    37    12    42 1   
    38    13    14 1   
    39    13    43 1   
    40    13    44 1   
    41    14    15 1   
    42    14    45 1   
    43    14    46 1   
    44    15    16 1   
    45    15    47 1   
    46    15    48 1   
    47    16    17 1   
    48    16    49 1   
    49    16    50 1   
    50    17    51 1   
    51    17    52 1   
    52    17    53 1   
@<TRIPOS>SUBSTRUCTURE
     1 PJ8         1 TEMP              0 ****  ****    0 ROOT
