@<TRIPOS>MOLECULE
PJ8
   53    52     1     0     0
SMALL
bcc


@<TRIPOS>ATOM
      1 C1          19.6540    48.7420    25.1230 c3         1 PJ8      -0.088100
      2 C2          20.9670    49.1720    24.4820 c3         1 PJ8      -0.075400
      3 C3          21.5050    50.4790    25.0500 c3         1 PJ8      -0.075900
      4 C4          22.7850    50.9440    24.3640 c3         1 PJ8      -0.074400
      5 C5          23.4290    52.1690    25.0070 c3         1 PJ8      -0.073400
      6 C6          22.5310    53.4040    25.0840 c3         1 PJ8      -0.071900
      7 C7          21.9510    53.8680    23.7510 c3         1 PJ8      -0.072900
      8 C8          22.9980    54.2600    22.7140 c3         1 PJ8      -0.075400
      9 C9          22.3880    54.8250    21.4380 c3         1 PJ8      -0.076400
     10 C10         23.4290    55.2170    20.3970 c3         1 PJ8      -0.075400
     11 C11         22.8180    55.8110    19.1330 c3         1 PJ8      -0.072900
     12 C12         23.8440    56.2580    18.0930 c3         1 PJ8      -0.071900
     13 C13         24.6250    55.1160    17.4550 c3         1 PJ8      -0.073400
     14 C14         25.6210    55.5860    16.4010 c3         1 PJ8      -0.074400
     15 C15         26.3900    54.4420    15.7550 c3         1 PJ8      -0.075900
     16 C16         27.4030    54.9010    14.7140 c3         1 PJ8      -0.075400
     17 C17         28.1520    53.7430    14.0700 c3         1 PJ8      -0.088100
     18 H1          19.2930    47.8020    24.7060 hc         1 PJ8       0.031033
     19 H2          19.7660    48.6050    26.2000 hc         1 PJ8       0.031033
     20 H3          18.8770    49.4930    24.9680 hc         1 PJ8       0.031033
     21 H4          21.7160    48.3850    24.6160 hc         1 PJ8       0.036200
     22 H5          20.8280    49.2770    23.4020 hc         1 PJ8       0.036200
     23 H6          20.7320    51.2500    24.9590 hc         1 PJ8       0.037200
     24 H7          21.6880    50.3600    26.1240 hc         1 PJ8       0.037200
     25 H8          23.5110    50.1250    24.3710 hc         1 PJ8       0.036700
     26 H9          22.5740    51.1430    23.3080 hc         1 PJ8       0.036700
     27 H10         23.7470    51.9100    26.0220 hc         1 PJ8       0.036950
     28 H11         24.3450    52.4160    24.4630 hc         1 PJ8       0.036950
     29 H12         23.1050    54.2250    25.5250 hc         1 PJ8       0.036450
     30 H13         21.7090    53.2130    25.7800 hc         1 PJ8       0.036450
     31 H14         21.3000    54.7280    23.9370 hc         1 PJ8       0.036950
     32 H15         21.3020    53.0920    23.3320 hc         1 PJ8       0.036950
     33 H16         23.6190    53.3950    22.4600 hc         1 PJ8       0.037450
     34 H17         23.6780    55.0010    23.1510 hc         1 PJ8       0.037450
     35 H18         21.7740    55.6980    21.6860 hc         1 PJ8       0.036200
     36 H19         21.7030    54.0880    21.0040 hc         1 PJ8       0.036200
     37 H20         24.0300    54.3370    20.1480 hc         1 PJ8       0.037450
     38 H21         24.1220    55.9440    20.8360 hc         1 PJ8       0.037450
     39 H22         22.1990    56.6690    19.4130 hc         1 PJ8       0.036950
     40 H23         22.1350    55.0830    18.6800 hc         1 PJ8       0.036950
     41 H24         24.5410    56.9640    18.5570 hc         1 PJ8       0.036450
     42 H25         23.3310    56.8160    17.3040 hc         1 PJ8       0.036450
     43 H26         23.9220    54.4100    16.9990 hc         1 PJ8       0.036950
     44 H27         25.1650    54.5520    18.2220 hc         1 PJ8       0.036950
     45 H28         26.3280    56.2870    16.8590 hc         1 PJ8       0.036700
     46 H29         25.0920    56.1520    15.6270 hc         1 PJ8       0.036700
     47 H30         25.6820    53.7480    15.2870 hc         1 PJ8       0.037200
     48 H31         26.9070    53.8660    16.5310 hc         1 PJ8       0.037200
     49 H32         28.1170    55.5860    15.1830 hc         1 PJ8       0.036200
     50 H33         26.8910    55.4820    13.9410 hc         1 PJ8       0.036200
     51 H34         28.8750    54.0910    13.3320 hc         1 PJ8       0.031033
     52 H35         28.6970    53.1620    14.8160 hc         1 PJ8       0.031033
     53 H36         27.4650    53.0630    13.5640 hc         1 PJ8       0.031033
@<TRIPOS>BOND
     1     1     2 1   
     2     1    18 1   
     3     1    19 1   
     4     1    20 1   
     5     2     3 1   
     6     2    21 1   
     7     2    22 1   
     8     3     4 1   
     9     3    23 1   
    10     3    24 1   
    11     4     5 1   
    12     4    25 1   
    13     4    26 1   
    14     5     6 1   
    15     5    27 1   
    16     5    28 1   
    17     6     7 1   
    18     6    29 1   
    19     6    30 1   
    20     7     8 1   
    21     7    31 1   
    22     7    32 1   
    23     8     9 1   
    24     8    33 1   
    25     8    34 1   
    26     9    10 1   
    27     9    35 1   
    28     9    36 1   
    29    10    11 1   
    30    10    37 1   
    31    10    38 1   
    32    11    12 1   
    33    11    39 1   
    34    11    40 1   
    35    12    13 1   
    36    12    41 1   
    37    12    42 1   
    38    13    14 1   
    39    13    43 1   
    40    13    44 1   
    41    14    15 1   
    42    14    45 1   
    43    14    46 1   
    44    15    16 1   
    45    15    47 1   
    46    15    48 1   
    47    16    17 1   
    48    16    49 1   
    49    16    50 1   
    50    17    51 1   
    51    17    52 1   
    52    17    53 1   
@<TRIPOS>SUBSTRUCTURE
     1 PJ8         1 TEMP              0 ****  ****    0 ROOT
