@<TRIPOS>MOLECULE
PJA
   39    41     1     0     0
SMALL
No Charge or Current Charge


@<TRIPOS>ATOM
      1 O           -2.8650     3.3300     0.1370 o          1 PJA      -0.597100
      2 CAN         -2.1860     2.4520    -0.3940 c          1 PJA       0.609500
      3 CBB         -2.4050     0.9950    -0.1000 ca         1 PJA      -0.340600
      4 CBF         -1.5230     0.0340    -0.6300 ca         1 PJA       0.265100
      5 OAS         -0.4060     0.4430    -1.3040 os         1 PJA      -0.226200
      6 CBE          0.8230     0.1620    -0.7580 ca         1 PJA       0.042100
      7 CBA          1.6690     1.2150    -0.3520 ca         1 PJA      -0.072600
      8 CAU          1.2940     2.6550    -0.5890 c          1 PJA       0.714600
      9 OAH          1.1210     3.0300    -1.7400 o          1 PJA      -0.698000
     10 OAE          1.2190     3.3950     0.3820 o          1 PJA      -0.698000
     11 CAL          2.8880     0.9130     0.2890 ca         1 PJA      -0.172000
     12 CAZ          3.2750    -0.4250     0.5120 ca         1 PJA       0.127100
     13 OAQ          4.4770    -0.7390     1.1210 os         1 PJA      -0.354100
     14 CAA          5.4000     0.2640     1.5840 c3         1 PJA       0.152900
     15 CAY          2.4360    -1.4780     0.0860 ca         1 PJA      -0.128300
     16 CAD          2.8620    -2.9370     0.2880 c3         1 PJA      -0.020800
     17 CBD          1.2080    -1.1790    -0.5460 ca         1 PJA       0.115100
     18 OAR          0.4730    -2.2220    -1.0670 os         1 PJA      -0.351200
     19 CBC         -0.8890    -2.3420    -1.1560 c          1 PJA       0.712700
     20 OAG         -1.3890    -3.2650    -1.7850 o          1 PJA      -0.519000
     21 CBG         -1.7410    -1.3390    -0.4290 ca         1 PJA      -0.297600
     22 CAW         -2.8330    -1.7610     0.3670 ca         1 PJA       0.063700
     23 CAC         -3.1090    -3.2330     0.6590 c3         1 PJA      -0.056800
     24 CAK         -3.6870    -0.7970     0.9230 ca         1 PJA      -0.227000
     25 CAX         -3.4860     0.5630     0.6840 ca         1 PJA       0.256100
     26 OAJ         -4.3530     1.4550     1.2300 oh         1 PJA      -0.553100
     27 H2          -1.3960     2.7120    -1.1320 h4         1 PJA       0.095200
     28 H5           3.5220     1.7390     0.5990 ha         1 PJA       0.139000
     29 H6           6.2800    -0.2100     2.0350 h1         1 PJA       0.036033
     30 H7           5.7420     0.8930     0.7520 h1         1 PJA       0.036033
     31 H8           4.9320     0.9040     2.3430 h1         1 PJA       0.036033
     32 H9           3.4920    -3.0640     1.1750 hc         1 PJA       0.037033
     33 H10          2.0000    -3.6000     0.4260 hc         1 PJA       0.037033
     34 H11          3.4280    -3.3000    -0.5780 hc         1 PJA       0.037033
     35 H12         -2.1840    -3.7760     0.8880 hc         1 PJA       0.050033
     36 H13         -3.7730    -3.3550     1.5230 hc         1 PJA       0.050033
     37 H14         -3.5900    -3.7200    -0.1960 hc         1 PJA       0.050033
     38 H15         -4.5280    -1.1060     1.5380 ha         1 PJA       0.124000
     39 H16         -4.0150     2.3510     0.9710 ho         1 PJA       0.525000
@<TRIPOS>BOND
     1     1     2 2   
     2     2     3 1   
     3     2    27 1   
     4     3     4 ar  
     5     3    25 ar  
     6     4     5 1   
     7     4    21 ar  
     8     5     6 1   
     9     6     7 ar  
    10     6    17 ar  
    11     7     8 1   
    12     7    11 ar  
    13     8     9 1   
    14     8    10 1   
    15    11    12 ar  
    16    11    28 1   
    17    12    13 1   
    18    12    15 ar  
    19    13    14 1   
    20    14    29 1   
    21    14    30 1   
    22    14    31 1   
    23    15    16 1   
    24    15    17 ar  
    25    16    32 1   
    26    16    33 1   
    27    16    34 1   
    28    17    18 1   
    29    18    19 1   
    30    19    20 2   
    31    19    21 1   
    32    21    22 ar  
    33    22    23 1   
    34    22    24 ar  
    35    23    35 1   
    36    23    36 1   
    37    23    37 1   
    38    24    25 ar  
    39    24    38 1   
    40    25    26 1   
    41    26    39 1   
@<TRIPOS>SUBSTRUCTURE
     1 PJA         1 TEMP              0 ****  ****    0 ROOT
