@<TRIPOS>MOLECULE
PJA
   39    41     1     0     0
SMALL
abcg2


@<TRIPOS>ATOM
      1 O           -3.0200     3.2630    -0.1880 o          1 PJA      -0.597100
      2 CAN         -2.2310     2.4050    -0.5710 c          1 PJA       0.609500
      3 CBB         -2.3620     1.0070    -0.1930 ca         1 PJA      -0.340600
      4 CBF         -1.4530     0.0360    -0.6300 ca         1 PJA       0.265100
      5 OAS         -0.3990     0.4460    -1.3840 os         1 PJA      -0.226200
      6 CBE          0.8260     0.2030    -0.7860 ca         1 PJA       0.042100
      7 CBA          1.6050     1.2210    -0.2690 ca         1 PJA      -0.072600
      8 CAU          1.2770     2.7040    -0.4160 c          1 PJA       0.714600
      9 OAH          0.8520     3.0670    -1.5270 o          1 PJA      -0.698000
     10 OAE          1.5050     3.4090     0.5800 o          1 PJA      -0.698000
     11 CAL          2.7950     0.8680     0.3690 ca         1 PJA      -0.172000
     12 CAZ          3.2000    -0.4550     0.4680 ca         1 PJA       0.127100
     13 OAQ          4.3450    -0.8470     1.0560 os         1 PJA      -0.354100
     14 CAA          5.1950     0.1350     1.6130 c3         1 PJA       0.152900
     15 CAY          2.4110    -1.4930    -0.0540 ca         1 PJA      -0.128300
     16 CAD          2.8610    -2.9180     0.0600 c3         1 PJA      -0.020800
     17 CBD          1.2290    -1.1230    -0.6720 ca         1 PJA       0.115100
     18 OAR          0.4880    -2.1080    -1.2780 os         1 PJA      -0.351200
     19 CBC         -0.8180    -2.3290    -1.0490 c          1 PJA       0.712700
     20 OAG         -1.2750    -3.3540    -1.4760 o          1 PJA      -0.519000
     21 CBG         -1.6240    -1.3130    -0.3420 ca         1 PJA      -0.297600
     22 CAW         -2.7060    -1.7080     0.4800 ca         1 PJA       0.063700
     23 CAC         -2.9360    -3.1350     0.8790 c3         1 PJA      -0.056800
     24 CAK         -3.5760    -0.7520     0.9620 ca         1 PJA      -0.227000
     25 CAX         -3.4420     0.5920     0.6140 ca         1 PJA       0.256100
     26 OAJ         -4.3360     1.4510     1.0690 oh         1 PJA      -0.553100
     27 H2          -1.3970     2.6800    -1.2240 h4         1 PJA       0.095200
     28 H5           3.3980     1.6640     0.7840 ha         1 PJA       0.139000
     29 H6           6.0450    -0.3960     2.0340 h1         1 PJA       0.036033
     30 H7           5.5570     0.8370     0.8570 h1         1 PJA       0.036033
     31 H8           4.7010     0.6980     2.4090 h1         1 PJA       0.036033
     32 H9           3.1100    -3.1660     1.0920 hc         1 PJA       0.037033
     33 H10          2.0990    -3.6180    -0.2730 hc         1 PJA       0.037033
     34 H11          3.7570    -3.0970    -0.5370 hc         1 PJA       0.037033
     35 H12         -2.0130    -3.6350     1.1690 hc         1 PJA       0.050033
     36 H13         -3.6230    -3.1800     1.7210 hc         1 PJA       0.050033
     37 H14         -3.3720    -3.7060     0.0600 hc         1 PJA       0.050033
     38 H15         -4.3950    -1.0430     1.6070 ha         1 PJA       0.124000
     39 H16         -4.0940     2.3500     0.7400 ho         1 PJA       0.525000
@<TRIPOS>BOND
     1     1     2 2   
     2     2     3 1   
     3     2    27 1   
     4     3     4 ar  
     5     3    25 ar  
     6     4     5 1   
     7     4    21 ar  
     8     5     6 1   
     9     6     7 ar  
    10     6    17 ar  
    11     7     8 1   
    12     7    11 ar  
    13     8     9 1   
    14     8    10 1   
    15    11    12 ar  
    16    11    28 1   
    17    12    13 1   
    18    12    15 ar  
    19    13    14 1   
    20    14    29 1   
    21    14    30 1   
    22    14    31 1   
    23    15    16 1   
    24    15    17 ar  
    25    16    32 1   
    26    16    33 1   
    27    16    34 1   
    28    17    18 1   
    29    18    19 1   
    30    19    20 2   
    31    19    21 1   
    32    21    22 ar  
    33    22    23 1   
    34    22    24 ar  
    35    23    35 1   
    36    23    36 1   
    37    23    37 1   
    38    24    25 ar  
    39    24    38 1   
    40    25    26 1   
    41    26    39 1   
@<TRIPOS>SUBSTRUCTURE
     1 PJA         1 TEMP              0 ****  ****    0 ROOT
