@<TRIPOS>MOLECULE
PJB
   41    43     1     0     0
SMALL
No Charge or Current Charge


@<TRIPOS>ATOM
      1 C10        -29.2260   -21.0100    -5.9790 ca         1 PJB      -0.137000
      2 C12        -29.2020   -20.0710    -3.7400 ca         1 PJB      -0.144000
      3 O17        -25.5340   -22.2740    -3.3420 o          1 PJB      -0.715000
      4 C15        -26.5060   -22.7670    -3.8960 c          1 PJB       0.709600
      5 O16        -26.6520   -23.9700    -4.0580 o          1 PJB      -0.715000
      6 C14        -27.6180   -21.8420    -4.3370 ca         1 PJB      -0.124600
      7 C13        -28.1460   -20.9300    -3.3960 ca         1 PJB      -0.093000
      8 C11        -29.7450   -20.1160    -5.0300 ca         1 PJB      -0.149000
      9 C9         -28.1520   -21.8720    -5.6560 ca         1 PJB      -0.060300
     10 C8         -27.5900   -22.8260    -6.7230 c3         1 PJB       0.199100
     11 N7         -27.5910   -22.2230    -8.0700 nu         1 PJB      -0.615400
     12 N2         -27.6200   -23.1550    -9.1610 n          1 PJB      -0.093700
     13 C3         -26.5160   -23.8640    -9.6130 cs         1 PJB       0.352400
     14 S6         -24.9560   -23.9810    -9.0100 s          1 PJB      -0.619400
     15 N5         -27.0000   -24.3900   -10.7760 ns         1 PJB      -0.280400
     16 N4         -28.2810   -24.0780   -11.1030 nc         1 PJB      -0.506300
     17 C1         -28.6650   -23.3270   -10.0820 cd         1 PJB       0.461500
     18 C18        -29.9650   -22.6420   -10.0070 ca         1 PJB      -0.112900
     19 C19        -30.8550   -22.8720    -8.9380 ca         1 PJB       0.166100
     20 O24        -30.5530   -23.7730    -7.9580 oh         1 PJB      -0.512100
     21 C20        -32.0930   -22.2080    -8.8970 ca         1 PJB      -0.172000
     22 C23        -30.3540   -21.7800   -11.0530 ca         1 PJB      -0.072000
     23 C22        -31.5900   -21.1130   -11.0170 ca         1 PJB       0.085100
     24 C21        -32.4610   -21.3240    -9.9270 ca         1 PJB      -0.136000
     25 O25        -31.9000   -20.2700   -12.0660 os         1 PJB      -0.343100
     26 C26        -33.1390   -19.5400   -12.1230 c3         1 PJB       0.151900
     27 H1         -29.6630   -21.0260    -6.9740 ha         1 PJB       0.103000
     28 H2         -29.6020   -19.3780    -3.0030 ha         1 PJB       0.086000
     29 H4         -27.7390   -20.8970    -2.3870 ha         1 PJB       0.127000
     30 H5         -30.5680   -19.4570    -5.2970 ha         1 PJB       0.082000
     31 H6         -28.1830   -23.7510    -6.7160 h1         1 PJB       0.093200
     32 H7         -26.5590   -23.1050    -6.4710 h1         1 PJB       0.093200
     33 H8         -26.9790   -21.4220    -8.2420 hn         1 PJB       0.445000
     34 H9         -26.4020   -24.9640   -11.3800 hn         1 PJB       0.495000
     35 H10        -31.2990   -23.8030    -7.3230 ho         1 PJB       0.479000
     36 H11        -32.7820   -22.3800    -8.0730 ha         1 PJB       0.120000
     37 H12        -29.6850   -21.6140   -11.8950 ha         1 PJB       0.132000
     38 H13        -33.4250   -20.8260    -9.8690 ha         1 PJB       0.113000
     39 H14        -33.1800   -18.9330   -13.0360 h1         1 PJB       0.035367
     40 H15        -33.9960   -20.2260   -12.1310 h1         1 PJB       0.035367
     41 H16        -33.2340   -18.8660   -11.2620 h1         1 PJB       0.035367
@<TRIPOS>BOND
     1     1     8 ar  
     2     1     9 ar  
     3     1    27 1   
     4     2     7 ar  
     5     2     8 ar  
     6     2    28 1   
     7     3     4 1   
     8     4     5 1   
     9     4     6 1   
    10     6     7 ar  
    11     6     9 ar  
    12     7    29 1   
    13     8    30 1   
    14     9    10 1   
    15    10    11 1   
    16    10    31 1   
    17    10    32 1   
    18    11    12 1   
    19    11    33 1   
    20    12    13 1   
    21    12    17 1   
    22    13    14 2   
    23    13    15 1   
    24    15    16 1   
    25    15    34 1   
    26    16    17 2   
    27    17    18 1   
    28    18    19 ar  
    29    18    22 ar  
    30    19    20 1   
    31    19    21 ar  
    32    20    35 1   
    33    21    24 ar  
    34    21    36 1   
    35    22    23 ar  
    36    22    37 1   
    37    23    24 ar  
    38    23    25 1   
    39    24    38 1   
    40    25    26 1   
    41    26    39 1   
    42    26    40 1   
    43    26    41 1   
@<TRIPOS>SUBSTRUCTURE
     1 PJB         1 TEMP              0 ****  ****    0 ROOT
