@<TRIPOS>MOLECULE
PJB
   41    43     1     0     0
SMALL
abcg2


@<TRIPOS>ATOM
      1 C10        -29.0120   -20.7920    -6.5550 ca         1 PJB      -0.137000
      2 C12        -29.6430   -20.0640    -4.3590 ca         1 PJB      -0.144000
      3 O17        -26.6660   -22.5230    -2.8120 o          1 PJB      -0.715000
      4 C15        -27.0960   -22.8510    -3.9330 c          1 PJB       0.709600
      5 O16        -26.8860   -23.9260    -4.5280 o          1 PJB      -0.715000
      6 C14        -28.0010   -21.8380    -4.6350 ca         1 PJB      -0.124600
      7 C13        -28.7530   -20.9850    -3.8280 ca         1 PJB      -0.093000
      8 C11        -29.7700   -19.9670    -5.7360 ca         1 PJB      -0.149000
      9 C9         -28.1340   -21.7400    -6.0310 ca         1 PJB      -0.060300
     10 C8         -27.3390   -22.6240    -6.9700 c3         1 PJB       0.199100
     11 N7         -27.4260   -22.1590    -8.3540 nu         1 PJB      -0.615400
     12 N2         -27.5050   -23.1490    -9.2930 n          1 PJB      -0.093700
     13 C3         -26.4910   -23.9520    -9.7330 cs         1 PJB       0.352400
     14 S6         -24.9090   -23.9770    -9.2090 s          1 PJB      -0.619400
     15 N5         -27.0850   -24.6650   -10.6970 ns         1 PJB      -0.280400
     16 N4         -28.3860   -24.3570   -10.8850 nc         1 PJB      -0.506300
     17 C1         -28.6290   -23.4240   -10.0270 cd         1 PJB       0.461500
     18 C18        -29.9020   -22.7200    -9.8460 ca         1 PJB      -0.112900
     19 C19        -30.6760   -22.9710    -8.7100 ca         1 PJB       0.166100
     20 O24        -30.2280   -23.9040    -7.8480 oh         1 PJB      -0.512100
     21 C20        -31.8570   -22.2670    -8.5390 ca         1 PJB      -0.172000
     22 C23        -30.3200   -21.7950   -10.7890 ca         1 PJB      -0.072000
     23 C22        -31.5080   -21.0880   -10.6150 ca         1 PJB       0.085100
     24 C21        -32.2710   -21.3300    -9.4770 ca         1 PJB      -0.136000
     25 O25        -31.8290   -20.2030   -11.5820 os         1 PJB      -0.343100
     26 C26        -33.0110   -19.4470   -11.4280 c3         1 PJB       0.151900
     27 H1         -29.1070   -20.7000    -7.6280 ha         1 PJB       0.103000
     28 H2         -30.2240   -19.4250    -3.7050 ha         1 PJB       0.086000
     29 H4         -28.6400   -21.0530    -2.7540 ha         1 PJB       0.127000
     30 H5         -30.4510   -19.2510    -6.1770 ha         1 PJB       0.082000
     31 H6         -27.7270   -23.6390    -6.9280 h1         1 PJB       0.093200
     32 H7         -26.3000   -22.6830    -6.6470 h1         1 PJB       0.093200
     33 H8         -26.6590   -21.5450    -8.5980 hn         1 PJB       0.445000
     34 H9         -26.6430   -25.3740   -11.2620 hn         1 PJB       0.495000
     35 H10        -30.7750   -23.9240    -7.0540 ho         1 PJB       0.479000
     36 H11        -32.4730   -22.4440    -7.6650 ha         1 PJB       0.120000
     37 H12        -29.7100   -21.6080   -11.6640 ha         1 PJB       0.132000
     38 H13        -33.1980   -20.8030    -9.2970 ha         1 PJB       0.113000
     39 H14        -33.0760   -18.7940   -12.2950 h1         1 PJB       0.035367
     40 H15        -33.9030   -20.0790   -11.3990 h1         1 PJB       0.035367
     41 H16        -32.9880   -18.8290   -10.5250 h1         1 PJB       0.035367
@<TRIPOS>BOND
     1     1     8 ar  
     2     1     9 ar  
     3     1    27 1   
     4     2     7 ar  
     5     2     8 ar  
     6     2    28 1   
     7     3     4 1   
     8     4     5 1   
     9     4     6 1   
    10     6     7 ar  
    11     6     9 ar  
    12     7    29 1   
    13     8    30 1   
    14     9    10 1   
    15    10    11 1   
    16    10    31 1   
    17    10    32 1   
    18    11    12 1   
    19    11    33 1   
    20    12    13 1   
    21    12    17 1   
    22    13    14 2   
    23    13    15 1   
    24    15    16 1   
    25    15    34 1   
    26    16    17 2   
    27    17    18 1   
    28    18    19 ar  
    29    18    22 ar  
    30    19    20 1   
    31    19    21 ar  
    32    20    35 1   
    33    21    24 ar  
    34    21    36 1   
    35    22    23 ar  
    36    22    37 1   
    37    23    24 ar  
    38    23    25 1   
    39    24    38 1   
    40    25    26 1   
    41    26    39 1   
    42    26    40 1   
    43    26    41 1   
@<TRIPOS>SUBSTRUCTURE
     1 PJB         1 TEMP              0 ****  ****    0 ROOT
