@<TRIPOS>MOLECULE
PJC
   49    53     1     0     0
SMALL
abcg2


@<TRIPOS>ATOM
      1 C5           6.9380    -5.0670     8.4750 ca         1 PJC      -0.364300
      2 C6           7.8240    -4.3970     9.3250 ca         1 PJC       0.305800
      3 C8           6.5070    -4.9020    11.1200 ca         1 PJC       0.407900
      4 C10          5.8030    -5.5950     9.0900 ca         1 PJC       0.197900
      5 N12          6.3130    -4.8430    12.4540 nh         1 PJC      -0.745300
      6 C13          7.3730    -4.4290    13.3520 c6         1 PJC       0.222300
      7 C20          5.9700    -6.9780    13.5890 c6         1 PJC      -0.219400
      8 C28         10.3050    -3.8910     9.4120 cc         1 PJC       0.032800
      9 F1           6.4150    -4.4650     6.2550 f          1 PJC      -0.111333
     10 C2           7.1320    -5.3000     7.0170 c3         1 PJC       0.383300
     11 F3           8.4090    -5.1890     6.6360 f          1 PJC      -0.111333
     12 F4           6.7400    -6.5390     6.6770 f          1 PJC      -0.111333
     13 N7           7.5990    -4.3180    10.6230 nb         1 PJC      -0.243000
     14 N9           5.5770    -5.5240    10.3800 nb         1 PJC      -0.242000
     15 C16          8.1260    -5.6520    13.8860 c6         1 PJC      -0.219400
     16 C19          7.1960    -6.7080    14.4290 c          1 PJC       0.575100
     17 C23          5.3230    -5.6750    13.1080 c6         1 PJC       0.222300
     18 O26          7.4260    -7.3140    15.4510 o          1 PJC      -0.516100
     19 C27          9.0690    -3.7580     8.8860 cd         1 PJC      -0.283000
     20 C29         11.1910    -2.8910     8.7000 c          1 PJC       0.561200
     21 N30         10.3840    -2.2160     7.8240 ns         1 PJC      -0.483500
     22 C32          9.0820    -2.6690     7.8840 c          1 PJC       0.585200
     23 O33          8.1500    -2.2210     7.2650 o          1 PJC      -0.472000
     24 O34         12.3730    -2.7230     8.8530 o          1 PJC      -0.491000
     25 C35         10.8360    -4.7680    10.4080 cc         1 PJC      -0.137200
     26 C36         11.9020    -4.4480    11.2330 cd         1 PJC      -0.083100
     27 N38         12.1100    -5.4380    12.1170 na         1 PJC      -0.204700
     28 C40         11.2160    -6.4560    11.9020 ca         1 PJC      -0.069200
     29 C41         10.3910    -6.0760    10.8260 ca         1 PJC      -0.054800
     30 C42          9.4260    -6.9830    10.3780 ca         1 PJC      -0.073000
     31 C44          9.2810    -8.1910    11.0360 ca         1 PJC      -0.131000
     32 C46         10.0930    -8.5280    12.1270 ca         1 PJC      -0.097000
     33 C48         11.0820    -7.6700    12.5680 ca         1 PJC      -0.116000
     34 H10          5.0480    -6.1140     8.5080 h4         1 PJC       0.039100
     35 H13          8.0600    -3.7620    12.8420 h1         1 PJC       0.075450
     36 H13A         6.9200    -3.8740    14.1770 h1         1 PJC       0.075450
     37 H20          5.2560    -7.5820    14.1490 hc         1 PJC       0.080450
     38 H20A         6.2840    -7.5610    12.7150 hc         1 PJC       0.080450
     39 H16          8.6780    -6.1020    13.0540 hc         1 PJC       0.080450
     40 H16A         8.8520    -5.3600    14.6440 hc         1 PJC       0.080450
     41 H23          4.9250    -5.1180    13.9580 h1         1 PJC       0.075450
     42 H23A         4.4970    -5.8840    12.4360 h1         1 PJC       0.075450
     43 HN30        10.6980    -1.4640     7.2280 hn         1 PJC       0.354500
     44 H36         12.5030    -3.5560    11.2640 h4         1 PJC       0.234000
     45 H42          8.8070    -6.7720     9.5170 ha         1 PJC       0.120000
     46 H44          8.5310    -8.8930    10.6950 ha         1 PJC       0.117000
     47 H46          9.9520    -9.4800    12.6220 ha         1 PJC       0.119000
     48 H48         11.7270    -7.9310    13.3970 ha         1 PJC       0.121000
     49 HN38        12.8200    -5.4260    12.8320 hn         1 PJC       0.358000
@<TRIPOS>BOND
     1     1     2 ar  
     2     1     4 ar  
     3     1    10 1   
     4     2    13 ar  
     5     2    19 1   
     6     3     5 1   
     7     3    13 ar  
     8     3    14 ar  
     9     4    14 ar  
    10     4    34 1   
    11     5     6 1   
    12     5    17 1   
    13     6    15 1   
    14     6    35 1   
    15     6    36 1   
    16     7    16 1   
    17     7    17 1   
    18     7    37 1   
    19     7    38 1   
    20     8    19 2   
    21     8    20 1   
    22     8    25 1   
    23     9    10 1   
    24    10    11 1   
    25    10    12 1   
    26    15    16 1   
    27    15    39 1   
    28    15    40 1   
    29    16    18 2   
    30    17    41 1   
    31    17    42 1   
    32    19    22 1   
    33    20    21 1   
    34    20    24 2   
    35    21    22 1   
    36    21    43 1   
    37    22    23 2   
    38    25    26 2   
    39    25    29 1   
    40    26    27 1   
    41    26    44 1   
    42    27    28 1   
    43    27    49 1   
    44    28    29 ar  
    45    28    33 ar  
    46    29    30 ar  
    47    30    31 ar  
    48    30    45 1   
    49    31    32 ar  
    50    31    46 1   
    51    32    33 ar  
    52    32    47 1   
    53    33    48 1   
@<TRIPOS>SUBSTRUCTURE
     1 PJC         1 TEMP              0 ****  ****    0 ROOT
