@<TRIPOS>MOLECULE
PJC
   49    53     1     0     0
SMALL
No Charge or Current Charge


@<TRIPOS>ATOM
      1 C5           6.9390    -5.1080     8.3830 ca         1 PJC      -0.364300
      2 C6           7.8670    -4.4970     9.2630 ca         1 PJC       0.305800
      3 C8           6.4700    -4.9450    11.0420 ca         1 PJC       0.407900
      4 C10          5.7640    -5.6160     8.9670 ca         1 PJC       0.197900
      5 N12          6.2450    -4.8960    12.4480 nh         1 PJC      -0.745300
      6 C13          7.1780    -4.1950    13.3740 c6         1 PJC       0.222300
      7 C20          6.3640    -7.0270    13.6720 c6         1 PJC      -0.219400
      8 C28         10.3690    -3.9140     9.4210 cc         1 PJC       0.032800
      9 F1           6.5700    -4.3420     6.1550 f          1 PJC      -0.111333
     10 C2           7.1650    -5.3110     6.8830 c3         1 PJC       0.383300
     11 F3           8.4700    -5.3360     6.5330 f          1 PJC      -0.111333
     12 F4           6.6450    -6.4850     6.4590 f          1 PJC      -0.111333
     13 N7           7.6070    -4.3970    10.5790 nb         1 PJC      -0.243000
     14 N9           5.5320    -5.5450    10.2880 nb         1 PJC      -0.242000
     15 C16          8.1900    -5.2070    13.9350 c6         1 PJC      -0.219400
     16 C19          7.4690    -6.4140    14.5290 c          1 PJC       0.575100
     17 C23          5.4270    -5.9300    13.1390 c6         1 PJC       0.222300
     18 O26          7.7190    -6.8270    15.6540 o          1 PJC      -0.516100
     19 C27          9.1040    -3.8400     8.8400 cd         1 PJC      -0.283000
     20 C29         11.1870    -2.7970     8.8810 c          1 PJC       0.561200
     21 N30         10.3440    -2.1760     8.0270 ns         1 PJC      -0.483500
     22 C32          9.0910    -2.6720     7.9400 c          1 PJC       0.585200
     23 O33          8.1730    -2.1880     7.3040 o          1 PJC      -0.472000
     24 O34         12.3430    -2.4700     9.1020 o          1 PJC      -0.491000
     25 C35         10.8180    -4.8760    10.4170 cc         1 PJC      -0.137200
     26 C36         11.9470    -4.6310    11.2000 cd         1 PJC      -0.083100
     27 N38         12.0910    -5.6620    12.1570 na         1 PJC      -0.204700
     28 C40         11.0920    -6.5770    11.8900 ca         1 PJC      -0.069200
     29 C41         10.3200    -6.1750    10.8290 ca         1 PJC      -0.054800
     30 C42          9.3400    -7.0310    10.2960 ca         1 PJC      -0.073000
     31 C44          9.0900    -8.2580    10.9430 ca         1 PJC      -0.131000
     32 C46          9.8420    -8.6330    12.0780 ca         1 PJC      -0.097000
     33 C48         10.8720    -7.7950    12.5490 ca         1 PJC      -0.116000
     34 H10          4.9970    -6.1090     8.3720 h4         1 PJC       0.039100
     35 H13          7.7050    -3.3640    12.8800 h1         1 PJC       0.075450
     36 H13A         6.6130    -3.7420    14.2040 h1         1 PJC       0.075450
     37 H20          5.8310    -7.8130    14.2210 hc         1 PJC       0.080450
     38 H20A         6.8490    -7.4550    12.7860 hc         1 PJC       0.080450
     39 H16          8.7470    -5.5710    13.0660 hc         1 PJC       0.080450
     40 H16A         8.8830    -4.7630    14.6600 hc         1 PJC       0.080450
     41 H23          4.8740    -5.4780    13.9760 h1         1 PJC       0.075450
     42 H23A         4.6670    -6.3760    12.4790 h1         1 PJC       0.075450
     43 HN30        10.6210    -1.3500     7.5190 hn         1 PJC       0.354500
     44 H36         12.6190    -3.7770    11.2010 h4         1 PJC       0.234000
     45 H42          8.8050    -6.7920     9.3860 ha         1 PJC       0.120000
     46 H44          8.3260    -8.9280    10.5540 ha         1 PJC       0.117000
     47 H46          9.6490    -9.5840    12.5690 ha         1 PJC       0.119000
     48 H48         11.4860    -8.0930    13.3950 ha         1 PJC       0.121000
     49 HN38        12.8040    -5.7280    12.8770 hn         1 PJC       0.358000
@<TRIPOS>BOND
     1     1     2 ar  
     2     1     4 ar  
     3     1    10 1   
     4     2    13 ar  
     5     2    19 1   
     6     3     5 1   
     7     3    13 ar  
     8     3    14 ar  
     9     4    14 ar  
    10     4    34 1   
    11     5     6 1   
    12     5    17 1   
    13     6    15 1   
    14     6    35 1   
    15     6    36 1   
    16     7    16 1   
    17     7    17 1   
    18     7    37 1   
    19     7    38 1   
    20     8    19 2   
    21     8    20 1   
    22     8    25 1   
    23     9    10 1   
    24    10    11 1   
    25    10    12 1   
    26    15    16 1   
    27    15    39 1   
    28    15    40 1   
    29    16    18 2   
    30    17    41 1   
    31    17    42 1   
    32    19    22 1   
    33    20    21 1   
    34    20    24 2   
    35    21    22 1   
    36    21    43 1   
    37    22    23 2   
    38    25    26 2   
    39    25    29 1   
    40    26    27 1   
    41    26    44 1   
    42    27    28 1   
    43    27    49 1   
    44    28    29 ar  
    45    28    33 ar  
    46    29    30 ar  
    47    30    31 ar  
    48    30    45 1   
    49    31    32 ar  
    50    31    46 1   
    51    32    33 ar  
    52    32    47 1   
    53    33    48 1   
@<TRIPOS>SUBSTRUCTURE
     1 PJC         1 TEMP              0 ****  ****    0 ROOT
