@<TRIPOS>MOLECULE
PJD
   21    21     1     0     0
SMALL
abcg2


@<TRIPOS>ATOM
      1 C1           1.5670    18.7970   -14.0690 ca         1 PJD      -0.057300
      2 C2           2.4920    17.6350   -14.1980 c3         1 PJD      -0.239100
      3 C3           0.2860    18.6780   -13.5230 ca         1 PJD       0.136500
      4 C13         -0.1520    21.0070   -13.8240 ca         1 PJD      -0.085000
      5 C10          2.7890    16.8670   -11.4630 c3         1 PJD      -0.333100
      6 C4           1.9390    20.0720   -14.5080 ca         1 PJD       0.136500
      7 C6          -0.5700    19.7590   -13.3940 ca         1 PJD      -0.098500
      8 C8           1.1010    21.1680   -14.3910 ca         1 PJD      -0.098500
      9 O11          4.6910    16.5420   -13.2560 o          1 PJD      -0.511000
     10 O12          4.1400    18.8720   -12.4880 o          1 PJD      -0.511000
     11 S5           3.6940    17.5290   -12.8430 s6         1 PJD       1.077000
     12 CL7         -0.2950    17.1320   -12.9990 cl         1 PJD      -0.185500
     13 CL9          3.4750    20.3120   -15.2640 cl         1 PJD      -0.185500
     14 H1           1.9730    16.6780   -14.2350 h1         1 PJD       0.117200
     15 H2           3.1100    17.7040   -15.0950 h1         1 PJD       0.117200
     16 H3          -0.8110    21.8580   -13.7260 ha         1 PJD       0.127000
     17 H4           3.5130    16.7390   -10.6590 h1         1 PJD       0.105700
     18 H5           2.0180    17.5670   -11.1490 h1         1 PJD       0.105700
     19 H6           2.3540    15.9080   -11.7300 h1         1 PJD       0.105700
     20 H7          -1.5530    19.6270   -12.9640 ha         1 PJD       0.137500
     21 H8           1.4250    22.1380   -14.7410 ha         1 PJD       0.137500
@<TRIPOS>BOND
     1     1     2 1   
     2     1     3 ar  
     3     1     6 ar  
     4     2    11 1   
     5     2    14 1   
     6     2    15 1   
     7     3     7 ar  
     8     3    12 1   
     9     4     7 ar  
    10     4     8 ar  
    11     4    16 1   
    12     5    11 1   
    13     5    17 1   
    14     5    18 1   
    15     5    19 1   
    16     6     8 ar  
    17     6    13 1   
    18     7    20 1   
    19     8    21 1   
    20     9    11 2   
    21    10    11 2   
@<TRIPOS>SUBSTRUCTURE
     1 PJD         1 TEMP              0 ****  ****    0 ROOT
