@<TRIPOS>MOLECULE
PJD
   21    21     1     0     0
SMALL
No Charge or Current Charge


@<TRIPOS>ATOM
      1 C1           1.5910    18.8030   -14.0790 ca         1 PJD      -0.057300
      2 C2           2.5710    17.6260   -14.2450 c3         1 PJD      -0.239100
      3 C3           0.2950    18.6050   -13.5380 ca         1 PJD       0.136500
      4 C13         -0.2060    20.9790   -13.7720 ca         1 PJD      -0.085000
      5 C10          2.7430    17.0360   -11.4420 c3         1 PJD      -0.333100
      6 C4           1.9560    20.1120   -14.4870 ca         1 PJD       0.136500
      7 C6          -0.5890    19.6870   -13.3830 ca         1 PJD      -0.098500
      8 C8           1.0650    21.1870   -14.3280 ca         1 PJD      -0.098500
      9 O11          4.5380    16.1920   -13.1770 o          1 PJD      -0.511000
     10 O12          4.4340    18.6640   -12.6360 o          1 PJD      -0.511000
     11 S5           3.7440    17.3920   -12.8840 s6         1 PJD       1.077000
     12 Cl7         -0.2760    17.0070   -13.0550 cl         1 PJD      -0.185500
     13 Cl9          3.5230    20.4480   -15.2290 cl         1 PJD      -0.185500
     14 H1           2.0430    16.6730   -14.3480 h1         1 PJD       0.117200
     15 H2           3.1880    17.7550   -15.1400 h1         1 PJD       0.117200
     16 H3          -0.8940    21.8130   -13.6530 ha         1 PJD       0.127000
     17 H4           3.4240    16.8860   -10.5980 h1         1 PJD       0.105700
     18 H5           2.0860    17.8940   -11.2680 h1         1 PJD       0.105700
     19 H6           2.1690    16.1270   -11.6490 h1         1 PJD       0.105700
     20 H7          -1.5790    19.5190   -12.9640 ha         1 PJD       0.137500
     21 H8           1.3610    22.1840   -14.6440 ha         1 PJD       0.137500
@<TRIPOS>BOND
     1     1     2 1   
     2     1     3 ar  
     3     1     6 ar  
     4     2    11 1   
     5     2    14 1   
     6     2    15 1   
     7     3     7 ar  
     8     3    12 1   
     9     4     7 ar  
    10     4     8 ar  
    11     4    16 1   
    12     5    11 1   
    13     5    17 1   
    14     5    18 1   
    15     5    19 1   
    16     6     8 ar  
    17     6    13 1   
    18     7    20 1   
    19     8    21 1   
    20     9    11 2   
    21    10    11 2   
@<TRIPOS>SUBSTRUCTURE
     1 PJD         1 TEMP              0 ****  ****    0 ROOT
