@<TRIPOS>MOLECULE
PJE
   27    27     1     0     0
SMALL
abcg2


@<TRIPOS>ATOM
      1 C19          0.2130    -1.2600    -0.2270 c3         1 PJE       0.198700
      2 C20          1.2930    -0.2230    -0.2890 c2         1 PJE      -0.276200
      3 C21          2.5820    -0.4090    -0.0190 ce         1 PJE      -0.240200
      4 C22          3.6140     0.6930    -0.0870 c          1 PJE       0.696200
      5 O6           4.7810     0.3570     0.2090 o          1 PJE      -0.733500
      6 C25         -0.8850    -0.8570     0.7760 c3         1 PJE      -0.091400
      7 C26         -1.5550     0.5120     0.5920 c5         1 PJE      -0.139700
      8 C27         -2.7030     0.7230     1.5850 c5         1 PJE      -0.094400
      9 C28         -3.9420     0.2220     0.8370 c5         1 PJE       0.102000
     10 N6          -3.5710     0.4420    -0.5440 ns         1 PJE      -0.528900
     11 C29         -2.2550     0.6030    -0.7570 c          1 PJE       0.561000
     12 O8          -1.7210     0.7690    -1.8430 o          1 PJE      -0.535000
     13 N5           0.7470    -2.5830     0.0560 n8         1 PJE      -0.977200
     14 O7           3.2360     1.8340    -0.4250 o          1 PJE      -0.733500
     15 H1          -0.2410    -1.3070    -1.2230 h1         1 PJE       0.062700
     16 H2           0.9730     0.7710    -0.5850 ha         1 PJE       0.191000
     17 H4           2.9420    -1.3940     0.2620 ha         1 PJE       0.149000
     18 H7          -1.6550    -1.6370     0.7620 hc         1 PJE       0.024200
     19 H8          -0.4490    -0.8760     1.7810 hc         1 PJE       0.024200
     20 H9          -0.8080     1.3030     0.6700 hc         1 PJE       0.111700
     21 H10         -2.5500     0.2010     2.5300 hc         1 PJE       0.051700
     22 H11         -2.8140     1.7850     1.8070 hc         1 PJE       0.051700
     23 H12         -4.1400    -0.8360     1.0320 h1         1 PJE       0.031200
     24 H13         -4.8400     0.7810     1.0980 h1         1 PJE       0.031200
     25 H14         -4.2270     0.3510    -1.3040 hn         1 PJE       0.314500
     26 H15          1.0830    -2.6140     1.0120 hn         1 PJE       0.375500
     27 H16         -0.0040    -3.2600     0.0090 hn         1 PJE       0.375500
@<TRIPOS>BOND
     1     1     2 1   
     2     1     6 1   
     3     1    13 1   
     4     1    15 1   
     5     2     3 2   
     6     2    16 1   
     7     3     4 1   
     8     3    17 1   
     9     4     5 1   
    10     4    14 1   
    11     6     7 1   
    12     6    18 1   
    13     6    19 1   
    14     7     8 1   
    15     7    11 1   
    16     7    20 1   
    17     8     9 1   
    18     8    21 1   
    19     8    22 1   
    20     9    10 1   
    21     9    23 1   
    22     9    24 1   
    23    10    11 1   
    24    10    25 1   
    25    11    12 2   
    26    13    26 1   
    27    13    27 1   
@<TRIPOS>SUBSTRUCTURE
     1 PJE         1 TEMP              0 ****  ****    0 ROOT
