@<TRIPOS>MOLECULE
PJE
   27    27     1     0     0
SMALL
No Charge or Current Charge


@<TRIPOS>ATOM
      1 C19          0.1440    -1.3260    -0.5630 c3         1 PJE       0.198700
      2 C20          1.3270    -0.3910    -0.6500 c2         1 PJE      -0.276200
      3 C21          2.2270    -0.1200     0.3330 ce         1 PJE      -0.240200
      4 C22          3.3870     0.8180     0.2170 c          1 PJE       0.696200
      5 O6           4.1060     0.9510     1.1950 o          1 PJE      -0.733500
      6 C25         -0.8260    -0.9930     0.6010 c3         1 PJE      -0.091400
      7 C26         -1.4500     0.4340     0.5530 c5         1 PJE      -0.139700
      8 C27         -2.4640     0.7170     1.6960 c5         1 PJE      -0.094400
      9 C28         -3.7890     0.1760     1.0870 c5         1 PJE       0.102000
     10 N6          -3.6000     0.5130    -0.3220 ns         1 PJE      -0.528900
     11 C29         -2.2930     0.6320    -0.7120 c          1 PJE       0.561000
     12 O8          -1.9540     1.0300    -1.8140 o          1 PJE      -0.535000
     13 N5           0.6590    -2.6890    -0.4250 n8         1 PJE      -0.977200
     14 O7           3.5690     1.4100    -0.8360 o          1 PJE      -0.733500
     15 H1          -0.4210    -1.2790    -1.5060 h1         1 PJE       0.062700
     16 H2           1.4170     0.0960    -1.6230 ha         1 PJE       0.191000
     17 H4           2.1360    -0.6030     1.3040 ha         1 PJE       0.149000
     18 H7          -1.6290    -1.7400     0.6050 hc         1 PJE       0.024200
     19 H8          -0.2950    -1.1160     1.5530 hc         1 PJE       0.024200
     20 H9          -0.6190     1.1470     0.5350 hc         1 PJE       0.111700
     21 H10         -2.2030     0.2350     2.6450 hc         1 PJE       0.051700
     22 H11         -2.5420     1.7930     1.8870 hc         1 PJE       0.051700
     23 H12         -3.8830    -0.9100     1.2260 h1         1 PJE       0.031200
     24 H13         -4.6710     0.6600     1.5260 h1         1 PJE       0.031200
     25 H14         -4.3340     0.6860    -0.9980 hn         1 PJE       0.314500
     26 H15          1.2310    -2.7260     0.4230 hn         1 PJE       0.375500
     27 H16         -0.1260    -3.3170    -0.2240 hn         1 PJE       0.375500
@<TRIPOS>BOND
     1     1     2 1   
     2     1     6 1   
     3     1    13 1   
     4     1    15 1   
     5     2     3 2   
     6     2    16 1   
     7     3     4 1   
     8     3    17 1   
     9     4     5 1   
    10     4    14 1   
    11     6     7 1   
    12     6    18 1   
    13     6    19 1   
    14     7     8 1   
    15     7    11 1   
    16     7    20 1   
    17     8     9 1   
    18     8    21 1   
    19     8    22 1   
    20     9    10 1   
    21     9    23 1   
    22     9    24 1   
    23    10    11 1   
    24    10    25 1   
    25    11    12 2   
    26    13    26 1   
    27    13    27 1   
@<TRIPOS>SUBSTRUCTURE
     1 PJE         1 TEMP              0 ****  ****    0 ROOT
