@<TRIPOS>MOLECULE
PJF
   53    57     1     0     0
SMALL
No Charge or Current Charge


@<TRIPOS>ATOM
      1 C10         12.2860   -58.2640    56.4580 cc         1 PJF       0.213800
      2 C11         12.1960   -57.2940    57.4410 cd         1 PJF      -0.298400
      3 C12         11.1720   -57.4050    58.5570 c6         1 PJF       0.237000
      4 C13         13.0680   -56.1100    57.5380 c          1 PJF       0.594200
      5 C15         14.2580   -53.5750    55.8560 ca         1 PJF      -0.083300
      6 C16         13.6320   -52.5840    56.6390 ca         1 PJF      -0.092500
      7 C17         13.0410   -51.4650    56.0260 ca         1 PJF      -0.099500
      8 C18         13.0740   -51.3300    54.6290 ca         1 PJF       0.118000
      9 C19         13.6980   -52.3120    53.8430 ca         1 PJF      -0.099500
     10 C2           7.0030   -55.2990    59.0540 ca         1 PJF      -0.022000
     11 C20         14.2890   -53.4310    54.4550 ca         1 PJF      -0.092500
     12 C21         14.0690   -56.9470    55.5540 cc         1 PJF       0.665800
     13 C22         14.7260   -58.1060    53.6940 c5         1 PJF       0.106800
     14 C23         13.5730   -58.8900    54.3630 c5         1 PJF       0.188800
     15 C24          7.6440   -56.5090    58.7230 ca         1 PJF      -0.049000
     16 C3           7.1160   -54.7850    60.3600 ca         1 PJF      -0.069000
     17 C4           7.8670   -55.4770    61.3260 ca         1 PJF      -0.114000
     18 C5           8.5060   -56.6830    60.9920 ca         1 PJF      -0.085000
     19 C6           8.3980   -57.2050    59.6880 ca         1 PJF      -0.093300
     20 C8          10.6160   -59.6430    57.7440 c6         1 PJF       0.173800
     21 C9          11.3670   -59.4610    56.4130 c6         1 PJF      -0.047200
     22 N1           5.6120   -54.0210    57.2610 n1         1 PJF      -0.455000
     23 N2          10.0750   -58.3480    58.2130 n3         1 PJF      -0.724600
     24 N3          14.0050   -55.9840    56.5270 n          1 PJF      -0.324300
     25 N4          14.9340   -56.8940    54.5790 n2         1 PJF      -0.668900
     26 N5          13.2750   -58.0550    55.4900 na         1 PJF      -0.657400
     27 O1          12.9770   -55.2940    58.4470 o          1 PJF      -0.529000
     28 Cl1         12.3330   -49.9300    53.8640 cl         1 PJF      -0.208000
     29 H1          11.6800   -57.7320    59.4770 h1         1 PJF       0.056700
     30 H2          10.7470   -56.4110    58.7680 h1         1 PJF       0.056700
     31 H3          15.8350   -55.0300    56.0070 h1         1 PJF       0.082200
     32 H4          15.1760   -54.5420    57.5500 h1         1 PJF       0.082200
     33 H5          13.6000   -52.6800    57.7220 ha         1 PJF       0.116000
     34 H6          12.5570   -50.7030    56.6330 ha         1 PJF       0.128500
     35 H7          13.7230   -52.2050    52.7610 ha         1 PJF       0.128500
     36 H8          14.7700   -54.1860    53.8370 ha         1 PJF       0.116000
     37 H9          15.6410   -58.7110    53.6410 h1         1 PJF       0.067200
     38 H10         12.7050   -58.9880    53.6970 h1         1 PJF       0.058700
     39 H11          7.5660   -56.9100    57.7130 ha         1 PJF       0.139000
     40 H12          6.6250   -53.8510    60.6270 ha         1 PJF       0.127000
     41 H13          7.9540   -55.0770    62.3340 ha         1 PJF       0.121000
     42 H14          9.0880   -57.2080    61.7460 ha         1 PJF       0.115000
     43 H15          8.3220   -59.2300    59.0190 h1         1 PJF       0.041700
     44 H16          9.5940   -58.9230    60.2020 h1         1 PJF       0.041700
     45 H17          9.8080   -60.3740    57.5920 h1         1 PJF       0.040200
     46 H18         11.3000   -60.0650    58.4960 h1         1 PJF       0.040200
     47 H19         10.6360   -59.3310    55.6060 hc         1 PJF       0.067700
     48 H20         11.9210   -60.3800    56.1870 hc         1 PJF       0.067700
     49 H22         14.4590   -57.8000    52.6730 h1         1 PJF       0.067200
     50 H23         13.8940   -59.8920    54.6810 h1         1 PJF       0.058700
     51 C14         14.8940   -54.7940    56.5190 c3         1 PJF       0.151300
     52 C7           9.0960   -58.5090    59.3140 c3         1 PJF       0.218100
     53 C1           6.2400   -54.5930    58.0620 cg         1 PJF       0.325000
@<TRIPOS>BOND
     1     1     2 2   
     2     1    21 1   
     3     1    26 1   
     4     2     3 1   
     5     2     4 1   
     6     3    23 1   
     7     3    29 1   
     8     3    30 1   
     9     4    24 1   
    10     4    27 2   
    11     5     6 ar  
    12     5    11 ar  
    13     5    51 1   
    14     6     7 ar  
    15     6    33 1   
    16     7     8 ar  
    17     7    34 1   
    18     8     9 ar  
    19     8    28 1   
    20     9    11 ar  
    21     9    35 1   
    22    10    15 ar  
    23    10    16 ar  
    24    10    53 1   
    25    11    36 1   
    26    12    24 1   
    27    12    25 2   
    28    12    26 1   
    29    13    14 1   
    30    13    25 1   
    31    13    37 1   
    32    13    49 1   
    33    14    26 1   
    34    14    38 1   
    35    14    50 1   
    36    15    19 ar  
    37    15    39 1   
    38    16    17 ar  
    39    16    40 1   
    40    17    18 ar  
    41    17    41 1   
    42    18    19 ar  
    43    18    42 1   
    44    19    52 1   
    45    20    21 1   
    46    20    23 1   
    47    20    45 1   
    48    20    46 1   
    49    21    47 1   
    50    21    48 1   
    51    22    53 3   
    52    23    52 1   
    53    24    51 1   
    54    31    51 1   
    55    32    51 1   
    56    43    52 1   
    57    44    52 1   
@<TRIPOS>SUBSTRUCTURE
     1 PJF         1 TEMP              0 ****  ****    0 ROOT
