@<TRIPOS>MOLECULE
PJF
   53    57     1     0     0
SMALL
abcg2


@<TRIPOS>ATOM
      1 C10         12.1740   -58.1500    56.5170 cc         1 PJF       0.213800
      2 C11         12.2010   -57.2580    57.5380 cd         1 PJF      -0.298400
      3 C12         11.2770   -57.3780    58.7120 c6         1 PJF       0.237000
      4 C13         13.1280   -56.1510    57.5140 c          1 PJF       0.594200
      5 C15         14.3450   -53.7220    55.6420 ca         1 PJF      -0.083300
      6 C16         13.0070   -53.5770    55.2960 ca         1 PJF      -0.092500
      7 C17         12.5400   -52.4020    54.7220 ca         1 PJF      -0.099500
      8 C18         13.4230   -51.3610    54.4930 ca         1 PJF       0.118000
      9 C19         14.7650   -51.4820    54.8240 ca         1 PJF      -0.099500
     10 C2           7.1840   -55.3240    59.2180 ca         1 PJF      -0.022000
     11 C20         15.2130   -52.6620    55.3930 ca         1 PJF      -0.092500
     12 C21         13.8740   -56.9300    55.3410 cc         1 PJF       0.665800
     13 C22         14.1810   -58.0170    53.4610 c5         1 PJF       0.106800
     14 C23         13.0430   -58.7460    54.2130 c5         1 PJF       0.188800
     15 C24          7.9330   -56.4540    58.9030 ca         1 PJF      -0.049000
     16 C3           7.0340   -54.9060    60.5410 ca         1 PJF      -0.069000
     17 C4           7.6480   -55.6350    61.5430 ca         1 PJF      -0.114000
     18 C5           8.3990   -56.7610    61.2300 ca         1 PJF      -0.085000
     19 C6           8.5450   -57.1850    59.9140 ca         1 PJF      -0.093300
     20 C8          10.6360   -59.5270    57.8890 c6         1 PJF       0.173800
     21 C9          11.2430   -59.3150    56.5140 c6         1 PJF      -0.047200
     22 N1           6.0500   -54.0000    57.3150 n1         1 PJF      -0.455000
     23 N2          10.1650   -58.2650    58.4230 n3         1 PJF      -0.724600
     24 N3          13.9520   -56.0560    56.3930 n          1 PJF      -0.324300
     25 N4          14.5450   -56.8550    54.2620 n2         1 PJF      -0.668900
     26 N5          13.0030   -57.9870    55.4580 na         1 PJF      -0.657400
     27 O1          13.2130   -55.3190    58.4030 o          1 PJF      -0.529000
     28 CL1         12.8450   -49.8880    53.7840 cl         1 PJF      -0.208000
     29 H1          11.8360   -57.7200    59.6010 h1         1 PJF       0.056700
     30 H2          10.8850   -56.3890    58.9630 h1         1 PJF       0.056700
     31 H3          15.7620   -55.3190    55.7330 h1         1 PJF       0.082200
     32 H4          15.2450   -54.7240    57.2990 h1         1 PJF       0.082200
     33 H5          12.3000   -54.3800    55.4640 ha         1 PJF       0.116000
     34 H6          11.4950   -52.3050    54.4600 ha         1 PJF       0.128500
     35 H7          15.4540   -50.6680    54.6400 ha         1 PJF       0.128500
     36 H8          16.2620   -52.7550    55.6490 ha         1 PJF       0.116000
     37 H9          15.0480   -58.6700    53.3330 h1         1 PJF       0.067200
     38 H10         12.0860   -58.6800    53.6940 h1         1 PJF       0.058700
     39 H11          8.0470   -56.7610    57.8710 ha         1 PJF       0.139000
     40 H12          6.4500   -54.0260    60.7740 ha         1 PJF       0.127000
     41 H13          7.5460   -55.3220    62.5740 ha         1 PJF       0.121000
     42 H14          8.8810   -57.3190    62.0250 ha         1 PJF       0.115000
     43 H15          8.5990   -59.2330    59.3590 h1         1 PJF       0.041700
     44 H16          9.8770   -58.7660    60.4700 h1         1 PJF       0.041700
     45 H17          9.7950   -60.2150    57.8020 h1         1 PJF       0.040200
     46 H18         11.3750   -60.0060    58.5520 h1         1 PJF       0.040200
     47 H19         10.4580   -59.1380    55.7720 hc         1 PJF       0.067700
     48 H20         11.7710   -60.2190    56.2010 hc         1 PJF       0.067700
     49 H22         13.8640   -57.7120    52.4620 h1         1 PJF       0.067200
     50 H23         13.2630   -59.7960    54.3980 h1         1 PJF       0.058700
     51 C14         14.8990   -54.9650    56.2950 c3         1 PJF       0.151300
     52 C7           9.3160   -58.4370    59.5810 c3         1 PJF       0.218100
     53 C1           6.5580   -54.5880    58.1660 cg         1 PJF       0.325000
@<TRIPOS>BOND
     1     1     2 2   
     2     1    21 1   
     3     1    26 1   
     4     2     3 1   
     5     2     4 1   
     6     3    23 1   
     7     3    29 1   
     8     3    30 1   
     9     4    24 1   
    10     4    27 2   
    11     5     6 ar  
    12     5    11 ar  
    13     5    51 1   
    14     6     7 ar  
    15     6    33 1   
    16     7     8 ar  
    17     7    34 1   
    18     8     9 ar  
    19     8    28 1   
    20     9    11 ar  
    21     9    35 1   
    22    10    15 ar  
    23    10    16 ar  
    24    10    53 1   
    25    11    36 1   
    26    12    24 1   
    27    12    25 2   
    28    12    26 1   
    29    13    14 1   
    30    13    25 1   
    31    13    37 1   
    32    13    49 1   
    33    14    26 1   
    34    14    38 1   
    35    14    50 1   
    36    15    19 ar  
    37    15    39 1   
    38    16    17 ar  
    39    16    40 1   
    40    17    18 ar  
    41    17    41 1   
    42    18    19 ar  
    43    18    42 1   
    44    19    52 1   
    45    20    21 1   
    46    20    23 1   
    47    20    45 1   
    48    20    46 1   
    49    21    47 1   
    50    21    48 1   
    51    22    53 3   
    52    23    52 1   
    53    24    51 1   
    54    31    51 1   
    55    32    51 1   
    56    43    52 1   
    57    44    52 1   
@<TRIPOS>SUBSTRUCTURE
     1 PJF         1 TEMP              0 ****  ****    0 ROOT
