@<TRIPOS>MOLECULE
PJG
   36    38     1     0     0
SMALL
abcg2


@<TRIPOS>ATOM
      1 C1          15.7340    12.2060     2.7050 c6         1 PJG       0.196200
      2 C2          14.3490    12.8140     2.9600 c6         1 PJG      -0.076067
      3 C3          16.3570    11.8510     4.0680 c6         1 PJG      -0.076067
      4 C12         15.3040     9.5870     4.0080 c6         1 PJG      -0.069067
      5 C13         17.9150    12.4770     0.0390 c3         1 PJG       0.144800
      6 C10         14.0990    11.4960     5.0740 c6         1 PJG      -0.069067
      7 C4          15.5500    10.9140     1.9010 c6         1 PJG      -0.076067
      8 C6          13.4560    11.8390     3.7290 c6         1 PJG      -0.057033
      9 C7          15.4710    10.8640     4.8330 c6         1 PJG      -0.057033
     10 C8          14.6590     9.9300     2.6630 c6         1 PJG      -0.057033
     11 N14         19.2670    12.0880    -0.3340 n8         1 PJG      -1.003200
     12 N5          16.5080    13.1860     1.9480 n7         1 PJG      -0.882400
     13 H1          14.4580    13.7500     3.5210 hc         1 PJG       0.043367
     14 H2          13.8880    13.0730     2.0010 hc         1 PJG       0.043367
     15 H3          17.3540    11.4190     3.9290 hc         1 PJG       0.043367
     16 H4          16.4890    12.7700     4.6520 hc         1 PJG       0.043367
     17 H7          14.6780     8.8700     4.5490 hc         1 PJG       0.039533
     18 H8          16.2770     9.1080     3.8520 hc         1 PJG       0.039533
     19 H9          17.5240    13.3330    -0.5290 h1         1 PJG       0.035700
     20 H10         17.2470    11.6390    -0.1720 h1         1 PJG       0.035700
     21 H11         14.1970    12.3970     5.6880 hc         1 PJG       0.039533
     22 H12         13.4590    10.8030     5.6290 hc         1 PJG       0.039533
     23 H13         15.1080    11.1520     0.9280 hc         1 PJG       0.043367
     24 H14         16.5210    10.4480     1.7040 hc         1 PJG       0.043367
     25 H15         12.4780    12.3010     3.8960 hc         1 PJG       0.048367
     26 H16         15.9390    10.6240     5.7930 hc         1 PJG       0.048367
     27 H17         14.5470     9.0180     2.0680 hc         1 PJG       0.048367
     28 H18         18.2640    11.9720     2.0940 h1         1 PJG       0.034200
     29 H19         18.5240    13.6540     1.7140 h1         1 PJG       0.034200
     30 H20         19.2850    11.8120    -1.3070 hn         1 PJG       0.391500
     31 H21         19.8800    12.8920    -0.2690 hn         1 PJG       0.391500
     32 H23         16.5550    14.0350     2.4970 hn         1 PJG       0.414000
     33 C11         13.2870    10.5600     2.9060 c6         1 PJG      -0.069067
     34 C9          17.8510    12.8130     1.5230 c3         1 PJG       0.170800
     35 H5          12.7990    10.7850     1.9520 hc         1 PJG       0.039533
     36 H6          12.6380     9.8530     3.4350 hc         1 PJG       0.039533
@<TRIPOS>BOND
     1     1     2 1   
     2     1     3 1   
     3     1     7 1   
     4     1    12 1   
     5     2     8 1   
     6     2    13 1   
     7     2    14 1   
     8     3     9 1   
     9     3    15 1   
    10     3    16 1   
    11     4     9 1   
    12     4    10 1   
    13     4    17 1   
    14     4    18 1   
    15     5    11 1   
    16     5    19 1   
    17     5    20 1   
    18     5    34 1   
    19     6     8 1   
    20     6     9 1   
    21     6    21 1   
    22     6    22 1   
    23     7    10 1   
    24     7    23 1   
    25     7    24 1   
    26     8    25 1   
    27     8    33 1   
    28     9    26 1   
    29    10    27 1   
    30    10    33 1   
    31    11    30 1   
    32    11    31 1   
    33    12    32 1   
    34    12    34 1   
    35    28    34 1   
    36    29    34 1   
    37    33    35 1   
    38    33    36 1   
@<TRIPOS>SUBSTRUCTURE
     1 PJG         1 TEMP              0 ****  ****    0 ROOT
