@<TRIPOS>MOLECULE
PJG
   36    38     1     0     0
SMALL
No Charge or Current Charge


@<TRIPOS>ATOM
      1 C1          15.7530    12.2040     2.7270 c6         1 PJG       0.196200
      2 C2          14.3410    12.8360     2.9520 c6         1 PJG      -0.076067
      3 C3          16.3590    11.8510     4.1260 c6         1 PJG      -0.076067
      4 C12         15.2740     9.5540     4.0500 c6         1 PJG      -0.069067
      5 C13         17.9410    12.4320     0.0230 c3         1 PJG       0.144800
      6 C10         14.0350    11.5090     5.0940 c6         1 PJG      -0.069067
      7 C4          15.5750    10.8830     1.9070 c6         1 PJG      -0.076067
      8 C6          13.4080    11.8490     3.7120 c6         1 PJG      -0.057033
      9 C7          15.4320    10.8580     4.8870 c6         1 PJG      -0.057033
     10 C8          14.6460     9.8910     2.6670 c6         1 PJG      -0.057033
     11 N14         19.2980    12.1580    -0.5170 n8         1 PJG      -1.003200
     12 N5          16.5940    13.2090     2.0240 n7         1 PJG      -0.882400
     13 H1          14.4280    13.7720     3.5210 hc         1 PJG       0.043367
     14 H2          13.8890    13.1040     1.9870 hc         1 PJG       0.043367
     15 H3          17.3560    11.4030     4.0170 hc         1 PJG       0.043367
     16 H4          16.4960    12.7630     4.7240 hc         1 PJG       0.043367
     17 H7          14.6430     8.8330     4.5880 hc         1 PJG       0.039533
     18 H8          16.2510     9.0700     3.9160 hc         1 PJG       0.039533
     19 H9          17.4930    13.2440    -0.5660 h1         1 PJG       0.035700
     20 H10         17.3280    11.5330    -0.1200 h1         1 PJG       0.035700
     21 H11         14.1270    12.4190     5.7030 hc         1 PJG       0.039533
     22 H12         13.3770    10.8280     5.6520 hc         1 PJG       0.039533
     23 H13         15.1540    11.1040     0.9160 hc         1 PJG       0.043367
     24 H14         16.5460    10.4000     1.7360 hc         1 PJG       0.043367
     25 H15         12.4220    12.3120     3.8580 hc         1 PJG       0.048367
     26 H16         15.8730    10.6160     5.8630 hc         1 PJG       0.048367
     27 H17         14.5340     8.9690     2.0800 hc         1 PJG       0.048367
     28 H18         18.3910    12.0330     2.1280 h1         1 PJG       0.034200
     29 H19         18.6090    13.7100     1.6290 h1         1 PJG       0.034200
     30 H20         19.2230    11.9600    -1.5220 hn         1 PJG       0.391500
     31 H21         19.8520    13.0230    -0.4840 hn         1 PJG       0.391500
     32 H23         16.7080    14.0030     2.6640 hn         1 PJG       0.414000
     33 C11         13.2510    10.5450     2.8780 c6         1 PJG      -0.069067
     34 C9          17.9480    12.8390     1.5290 c3         1 PJG       0.170800
     35 H5          12.7850    10.7680     1.9080 hc         1 PJG       0.039533
     36 H6          12.5770     9.8450     3.3920 hc         1 PJG       0.039533
@<TRIPOS>BOND
     1     1     2 1   
     2     1     3 1   
     3     1     7 1   
     4     1    12 1   
     5     2     8 1   
     6     2    13 1   
     7     2    14 1   
     8     3     9 1   
     9     3    15 1   
    10     3    16 1   
    11     4     9 1   
    12     4    10 1   
    13     4    17 1   
    14     4    18 1   
    15     5    11 1   
    16     5    19 1   
    17     5    20 1   
    18     5    34 1   
    19     6     8 1   
    20     6     9 1   
    21     6    21 1   
    22     6    22 1   
    23     7    10 1   
    24     7    23 1   
    25     7    24 1   
    26     8    25 1   
    27     8    33 1   
    28     9    26 1   
    29    10    27 1   
    30    10    33 1   
    31    11    30 1   
    32    11    31 1   
    33    12    32 1   
    34    12    34 1   
    35    28    34 1   
    36    29    34 1   
    37    33    35 1   
    38    33    36 1   
@<TRIPOS>SUBSTRUCTURE
     1 PJG         1 TEMP              0 ****  ****    0 ROOT
