@<TRIPOS>MOLECULE
PJH
   18    18     1     0     0
SMALL
No Charge or Current Charge


@<TRIPOS>ATOM
      1 C01         32.6660    47.4400    15.7680 c3         1 PJH       0.094300
      2 C03         33.1310    49.8320    15.1510 c          1 PJH       0.613700
      3 C04         33.6140    51.1730    15.6310 ca         1 PJH      -0.204600
      4 C05         34.0260    51.3770    16.9630 ca         1 PJH       0.356900
      5 C07         34.5110    53.6110    16.5740 ca         1 PJH       0.352900
      6 C08         34.1220    53.5060    15.2310 ca         1 PJH      -0.172000
      7 C09         33.6650    52.2710    14.7450 ca         1 PJH      -0.023000
      8 N02         33.1070    48.8050    16.0700 ns         1 PJH      -0.502900
      9 N06         34.4660    52.5680    17.4320 nb         1 PJH      -0.671000
     10 O10         32.7720    49.6520    13.9960 o          1 PJH      -0.598100
     11 H1          32.7450    46.8200    16.6710 h1         1 PJH       0.042033
     12 H2          31.6210    47.4550    15.4310 h1         1 PJH       0.042033
     13 H3          33.2990    47.0120    14.9800 h1         1 PJH       0.042033
     14 H4          34.0100    50.5700    17.6940 h4         1 PJH       0.017100
     15 H5          34.8690    54.5580    16.9760 h4         1 PJH       0.022100
     16 H6          34.1750    54.3730    14.5800 ha         1 PJH       0.129000
     17 H7          33.3590    52.1720    13.7050 ha         1 PJH       0.141000
     18 H8          33.4150    49.0120    17.0120 hn         1 PJH       0.317500
@<TRIPOS>BOND
     1     1     8 1   
     2     1    11 1   
     3     1    12 1   
     4     1    13 1   
     5     2     3 1   
     6     2     8 1   
     7     2    10 2   
     8     3     4 ar  
     9     3     7 ar  
    10     4     9 ar  
    11     4    14 1   
    12     5     6 ar  
    13     5     9 ar  
    14     5    15 1   
    15     6     7 ar  
    16     6    16 1   
    17     7    17 1   
    18     8    18 1   
@<TRIPOS>SUBSTRUCTURE
     1 PJH         1 TEMP              0 ****  ****    0 ROOT
