@<TRIPOS>MOLECULE
PJH
   18    18     1     0     0
SMALL
bcc


@<TRIPOS>ATOM
      1 C01         32.7640    47.4860    15.7020 c3         1 PJH       0.094300
      2 C03         32.9680    49.8710    15.2560 c          1 PJH       0.680700
      3 C04         33.5160    51.1840    15.7130 ca         1 PJH      -0.269900
      4 C05         33.7520    51.4870    17.0510 ca         1 PJH       0.422200
      5 C07         34.4800    53.5840    16.5550 ca         1 PJH       0.418200
      6 C08         34.2680    53.3930    15.1960 ca         1 PJH      -0.255300
      7 C09         33.7680    52.1760    14.7710 ca         1 PJH      -0.041000
      8 N02         33.2350    48.8120    16.0300 ns         1 PJH      -0.569900
      9 N06         34.2200    52.6560    17.4680 nb         1 PJH      -0.671000
     10 O10         32.3160    49.7890    14.2230 o          1 PJH      -0.598100
     11 H1          33.0710    46.8090    16.4930 h1         1 PJH       0.042033
     12 H2          31.6780    47.4590    15.6270 h1         1 PJH       0.042033
     13 H3          33.1830    47.1290    14.7600 h1         1 PJH       0.042033
     14 H4          33.5320    50.7660    17.8310 h4         1 PJH       0.017100
     15 H5          34.8710    54.5260    16.9190 h4         1 PJH       0.022100
     16 H6          34.4890    54.1840    14.4930 ha         1 PJH       0.147000
     17 H7          33.5830    51.9920    13.7210 ha         1 PJH       0.159000
     18 H8          33.8790    48.9040    16.7980 hn         1 PJH       0.317500
@<TRIPOS>BOND
     1     1     8 1   
     2     1    11 1   
     3     1    12 1   
     4     1    13 1   
     5     2     3 1   
     6     2     8 1   
     7     2    10 2   
     8     3     4 ar  
     9     3     7 ar  
    10     4     9 ar  
    11     4    14 1   
    12     5     6 ar  
    13     5     9 ar  
    14     5    15 1   
    15     6     7 ar  
    16     6    16 1   
    17     7    17 1   
    18     8    18 1   
@<TRIPOS>SUBSTRUCTURE
     1 PJH         1 TEMP              0 ****  ****    0 ROOT
