@<TRIPOS>MOLECULE
PJJ
   45    46     1     0     0
SMALL
bcc


@<TRIPOS>ATOM
      1 N           -2.4000     1.7130     0.5350 n8         1 PJJ      -0.890800
      2 C1          -2.1450     0.3720     0.0290 c3         1 PJJ       0.128500
      3 C2          -0.7350     0.3030    -0.5760 c3         1 PJJ       0.161100
      4 O1          -0.5640     1.2900    -1.5750 oh         1 PJJ      -0.591800
      5 C3          -3.1990    -0.1250    -0.9770 c3         1 PJJ      -0.074100
      6 C4          -4.5790    -0.1580    -0.3880 ca         1 PJJ      -0.069300
      7 C5          -5.4830     0.8800    -0.6030 ca         1 PJJ      -0.130500
      8 C6          -4.9720    -1.2170     0.4300 ca         1 PJJ      -0.130500
      9 C7          -6.7450     0.8610    -0.0210 ca         1 PJJ      -0.131500
     10 C8          -6.2300    -1.2410     1.0140 ca         1 PJJ      -0.131500
     11 C9          -7.1220    -0.1990     0.7910 ca         1 PJJ      -0.142000
     12 C10          0.3420     0.3770     0.4990 c3         1 PJJ      -0.076400
     13 CA           1.7740     0.2420    -0.0190 c3         1 PJJ      -0.186700
     14 C            1.9840    -1.1170    -0.7140 c          1 PJJ       0.924600
     15 O            1.7730    -2.1310    -0.0130 o          1 PJJ      -0.839800
     16 C13          2.7500     0.4030     1.1560 c3         1 PJJ      -0.013100
     17 C14          4.1930     0.3350     0.7420 ca         1 PJJ      -0.037300
     18 C15          4.8560     1.4740     0.2900 ca         1 PJJ      -0.114000
     19 C16          4.8950    -0.8690     0.7720 ca         1 PJJ      -0.114000
     20 C17          6.1810     1.4170    -0.1220 ca         1 PJJ      -0.139000
     21 C18          6.2200    -0.9330     0.3620 ca         1 PJJ      -0.139000
     22 C19          6.8690     0.2100    -0.0870 ca         1 PJJ      -0.151000
     23 OXT          2.3400    -1.1130    -1.9080 o          1 PJJ      -0.839800
     24 H1          -2.7190     2.3130    -0.2170 hn         1 PJJ       0.330800
     25 H3          -2.1580    -0.3080     0.8870 h1         1 PJJ       0.060700
     26 H4          -0.6470    -0.6580    -1.0940 h1         1 PJJ       0.097700
     27 H5          -0.5110     2.1440    -1.1310 ho         1 PJJ       0.389000
     28 H6          -3.1840     0.5230    -1.8590 hc         1 PJJ       0.064200
     29 H7          -2.9170    -1.1270    -1.3150 hc         1 PJJ       0.064200
     30 H8          -5.2010     1.7090    -1.2420 ha         1 PJJ       0.133000
     31 H9          -4.2830    -2.0360     0.6070 ha         1 PJJ       0.133000
     32 H10         -7.4350     1.6750    -0.2060 ha         1 PJJ       0.122500
     33 H11         -6.5160    -2.0750     1.6430 ha         1 PJJ       0.122500
     34 H12         -8.1060    -0.2160     1.2430 ha         1 PJJ       0.120000
     35 H13          0.2330     1.3190     1.0500 hc         1 PJJ       0.032200
     36 H14          0.1580    -0.4200     1.2250 hc         1 PJJ       0.032200
     37 H15          1.9700     1.0450    -0.7370 hc         1 PJJ       0.044700
     38 H16          2.5580     1.3650     1.6400 hc         1 PJJ       0.028200
     39 H17          2.5410    -0.3710     1.8980 hc         1 PJJ       0.028200
     40 H18          4.3280     2.4210     0.2650 ha         1 PJJ       0.134500
     41 H19          4.3930    -1.7660     1.1130 ha         1 PJJ       0.134500
     42 H20          6.6780     2.3160    -0.4650 ha         1 PJJ       0.110500
     43 H21          6.7480    -1.8770     0.3940 ha         1 PJJ       0.110500
     44 H22          7.9040     0.1620    -0.4030 ha         1 PJJ       0.106000
     45 H2          -3.1550     1.6940     1.2070 hn         1 PJJ       0.330800
@<TRIPOS>BOND
     1     1     2 1   
     2     1    24 1   
     3     1    45 1   
     4     2     3 1   
     5     2     5 1   
     6     2    25 1   
     7     3     4 1   
     8     3    12 1   
     9     3    26 1   
    10     4    27 1   
    11     5     6 1   
    12     5    28 1   
    13     5    29 1   
    14     6     7 ar  
    15     6     8 ar  
    16     7     9 ar  
    17     7    30 1   
    18     8    10 ar  
    19     8    31 1   
    20     9    11 ar  
    21     9    32 1   
    22    10    11 ar  
    23    10    33 1   
    24    11    34 1   
    25    12    13 1   
    26    12    35 1   
    27    12    36 1   
    28    13    14 1   
    29    13    16 1   
    30    13    37 1   
    31    14    15 1   
    32    14    23 1   
    33    16    17 1   
    34    16    38 1   
    35    16    39 1   
    36    17    18 ar  
    37    17    19 ar  
    38    18    20 ar  
    39    18    40 1   
    40    19    21 ar  
    41    19    41 1   
    42    20    22 ar  
    43    20    42 1   
    44    21    22 ar  
    45    21    43 1   
    46    22    44 1   
@<TRIPOS>SUBSTRUCTURE
     1 PJJ         1 TEMP              0 ****  ****    0 ROOT
