@<TRIPOS>MOLECULE
PJJ
   45    46     1     0     0
SMALL
No Charge or Current Charge


@<TRIPOS>ATOM
      1 N           -2.4840     1.7630     0.4730 n8         1 PJJ      -0.890800
      2 C1          -2.1700     0.3860     0.0100 c3         1 PJJ       0.128500
      3 C2          -0.7190     0.3020    -0.5650 c3         1 PJJ       0.161100
      4 O1          -0.5440     1.4220    -1.4380 oh         1 PJJ      -0.591800
      5 C3          -3.2430    -0.0730    -1.0110 c3         1 PJJ      -0.074100
      6 C4          -4.6560    -0.0940    -0.4330 ca         1 PJJ      -0.069300
      7 C5          -5.5970     0.8860    -0.8070 ca         1 PJJ      -0.130500
      8 C6          -5.0320    -1.0990     0.4800 ca         1 PJJ      -0.130500
      9 C7          -6.8970     0.8620    -0.2730 ca         1 PJJ      -0.131500
     10 C8          -6.3330    -1.1230     1.0140 ca         1 PJJ      -0.131500
     11 C9          -7.2660    -0.1420     0.6380 ca         1 PJJ      -0.142000
     12 C10          0.3680     0.3500     0.5460 c3         1 PJJ      -0.076400
     13 CA           1.8330     0.1690     0.0430 c3         1 PJJ      -0.186700
     14 C            2.0140    -1.1410    -0.7640 c          1 PJJ       0.924600
     15 O            1.7690    -2.2100    -0.2180 o          1 PJJ      -0.839800
     16 C13          2.8460     0.2480     1.2150 c3         1 PJJ      -0.013100
     17 C14          4.2970     0.2560     0.7490 ca         1 PJJ      -0.037300
     18 C15          4.8610     1.4290     0.2090 ca         1 PJJ      -0.114000
     19 C16          5.0900    -0.9040     0.8580 ca         1 PJJ      -0.114000
     20 C17          6.2010     1.4410    -0.2190 ca         1 PJJ      -0.139000
     21 C18          6.4290    -0.8920     0.4310 ca         1 PJJ      -0.139000
     22 C19          6.9850     0.2810    -0.1070 ca         1 PJJ      -0.151000
     23 OXT          2.3530    -1.0650    -1.9390 o          1 PJJ      -0.839800
     24 H1          -3.4820     1.8040     0.7040 hn         1 PJJ       0.330800
     25 H3          -2.2390    -0.2880     0.8760 h1         1 PJJ       0.060700
     26 H4          -0.6170    -0.6450    -1.1140 h1         1 PJJ       0.097700
     27 H5          -1.1800     2.0800    -1.0760 ho         1 PJJ       0.389000
     28 H6          -3.2020     0.5730    -1.8970 hc         1 PJJ       0.064200
     29 H7          -2.9850    -1.0790    -1.3640 hc         1 PJJ       0.064200
     30 H8          -5.3200     1.6680    -1.5110 ha         1 PJJ       0.133000
     31 H9          -4.3170    -1.8640     0.7750 ha         1 PJJ       0.133000
     32 H10         -7.6190     1.6230    -0.5660 ha         1 PJJ       0.122500
     33 H11         -6.6170    -1.9020     1.7190 ha         1 PJJ       0.122500
     34 H12         -8.2720    -0.1600     1.0510 ha         1 PJJ       0.120000
     35 H13          0.2920     1.3030     1.0840 hc         1 PJJ       0.032200
     36 H14          0.1500    -0.4350     1.2800 hc         1 PJJ       0.032200
     37 H15          2.0590     1.0050    -0.6310 hc         1 PJJ       0.044700
     38 H16          2.6520     1.1600     1.7930 hc         1 PJJ       0.028200
     39 H17          2.6700    -0.5860     1.9060 hc         1 PJJ       0.028200
     40 H18          4.2590     2.3310     0.1200 ha         1 PJJ       0.134500
     41 H19          4.6660    -1.8170     1.2720 ha         1 PJJ       0.134500
     42 H20          6.6300     2.3500    -0.6350 ha         1 PJJ       0.110500
     43 H21          7.0350    -1.7910     0.5170 ha         1 PJJ       0.110500
     44 H22          8.0220     0.2900    -0.4380 ha         1 PJJ       0.106000
     45 H2          -2.0090     1.9350     1.3650 hn         1 PJJ       0.330800
@<TRIPOS>BOND
     1     1     2 1   
     2     1    24 1   
     3     1    45 1   
     4     2     3 1   
     5     2     5 1   
     6     2    25 1   
     7     3     4 1   
     8     3    12 1   
     9     3    26 1   
    10     4    27 1   
    11     5     6 1   
    12     5    28 1   
    13     5    29 1   
    14     6     7 ar  
    15     6     8 ar  
    16     7     9 ar  
    17     7    30 1   
    18     8    10 ar  
    19     8    31 1   
    20     9    11 ar  
    21     9    32 1   
    22    10    11 ar  
    23    10    33 1   
    24    11    34 1   
    25    12    13 1   
    26    12    35 1   
    27    12    36 1   
    28    13    14 1   
    29    13    16 1   
    30    13    37 1   
    31    14    15 1   
    32    14    23 1   
    33    16    17 1   
    34    16    38 1   
    35    16    39 1   
    36    17    18 ar  
    37    17    19 ar  
    38    18    20 ar  
    39    18    40 1   
    40    19    21 ar  
    41    19    41 1   
    42    20    22 ar  
    43    20    42 1   
    44    21    22 ar  
    45    21    43 1   
    46    22    44 1   
@<TRIPOS>SUBSTRUCTURE
     1 PJJ         1 TEMP              0 ****  ****    0 ROOT
