@<TRIPOS>MOLECULE
PJK
   29    30     1     0     0
SMALL
No Charge or Current Charge


@<TRIPOS>ATOM
      1 C10         -1.7150     4.3210     4.6440 ca         1 PJK      -0.180000
      2 C13         -0.3680     6.5490     5.7540 ca         1 PJK      -0.135300
      3 C15          0.3510     7.7670     6.3640 c3         1 PJK       0.357300
      4 C02         -7.0860     3.3550     5.2510 c          1 PJK       0.730000
      5 C04         -6.0650     4.4920     5.4790 c5         1 PJK      -0.206700
      6 C05         -5.8120     4.7740     6.9860 c5         1 PJK      -0.068400
      7 C06         -4.5190     5.6240     6.9040 c5         1 PJK       0.209800
      8 C08         -4.6620     4.0350     5.0200 c5         1 PJK       0.233800
      9 C09         -2.4220     5.1990     5.4860 ca         1 PJK       0.373000
     10 C11         -0.3590     4.5430     4.3560 ca         1 PJK      -0.058000
     11 C12          0.3150     5.6460     4.9030 ca         1 PJK       0.066000
     12 C14         -1.7380     6.3060     6.0320 ca         1 PJK      -0.176000
     13 F16          1.3990     7.3970     7.1360 f          1 PJK      -0.117667
     14 F17         -0.4530     8.5180     7.1500 f          1 PJK      -0.117667
     15 F18          0.8310     8.5970     5.4090 f          1 PJK      -0.117667
     16 N07         -3.7920     4.9750     5.7790 nh         1 PJK      -0.813400
     17 Cl1          2.0180     5.8550     4.4920 cl         1 PJK      -0.218000
     18 H1          -2.2070     3.4560     4.2120 ha         1 PJK       0.131000
     19 H2          -6.3840     5.3960     4.9470 hc         1 PJK       0.038700
     20 H3          -6.6370     5.3110     7.4670 hc         1 PJK       0.054700
     21 H4          -5.6380     3.8540     7.5570 hc         1 PJK       0.054700
     22 H5          -3.9550     5.5870     7.8470 h1         1 PJK       0.028200
     23 H6          -4.7470     6.6730     6.6700 h1         1 PJK       0.028200
     24 H7          -4.4490     2.9930     5.3020 h1         1 PJK       0.051700
     25 H8          -4.5460     4.1340     3.9310 h1         1 PJK       0.051700
     26 H9           0.1740     3.8550     3.7050 ha         1 PJK       0.119000
     27 H10         -2.2830     6.9890     6.6750 ha         1 PJK       0.129000
     28 O01         -6.9120     2.2630     5.7720 o          1 PJK      -0.725000
     29 O03         -8.0600     3.5850     4.5510 o          1 PJK      -0.725000
@<TRIPOS>BOND
     1     1     9 ar  
     2     1    10 ar  
     3     1    18 1   
     4     2     3 1   
     5     2    11 ar  
     6     2    12 ar  
     7     3    13 1   
     8     3    14 1   
     9     3    15 1   
    10     4     5 1   
    11     4    28 1   
    12     4    29 1   
    13     5     6 1   
    14     5     8 1   
    15     5    19 1   
    16     6     7 1   
    17     6    20 1   
    18     6    21 1   
    19     7    16 1   
    20     7    22 1   
    21     7    23 1   
    22     8    16 1   
    23     8    24 1   
    24     8    25 1   
    25     9    12 ar  
    26     9    16 1   
    27    10    11 ar  
    28    10    26 1   
    29    11    17 1   
    30    12    27 1   
@<TRIPOS>SUBSTRUCTURE
     1 PJK         1 TEMP              0 ****  ****    0 ROOT
