@<TRIPOS>MOLECULE
PJK
   29    30     1     0     0
SMALL
abcg2


@<TRIPOS>ATOM
      1 C10         -1.7940     4.4570     4.4760 ca         1 PJK      -0.180000
      2 C13         -0.4190     6.5000     5.7630 ca         1 PJK      -0.135300
      3 C15          0.2980     7.6300     6.4450 c3         1 PJK       0.357300
      4 C02         -7.0680     3.3190     5.3270 c          1 PJK       0.730000
      5 C04         -6.0030     4.4040     5.5490 c5         1 PJK      -0.206700
      6 C05         -5.7540     4.8270     6.9930 c5         1 PJK      -0.068400
      7 C06         -4.4270     5.5730     6.9200 c5         1 PJK       0.209800
      8 C08         -4.6050     4.0320     5.0670 c5         1 PJK       0.233800
      9 C09         -2.4610     5.2000     5.4670 ca         1 PJK       0.373000
     10 C11         -0.4800     4.7280     4.1490 ca         1 PJK      -0.058000
     11 C12          0.2180     5.7430     4.7830 ca         1 PJK       0.066000
     12 C14         -1.7330     6.2230     6.1040 ca         1 PJK      -0.176000
     13 F16          1.3630     7.2080     7.1380 f          1 PJK      -0.117667
     14 F17         -0.4880     8.2800     7.3060 f          1 PJK      -0.117667
     15 F18          0.7410     8.5390     5.5660 f          1 PJK      -0.117667
     16 N07         -3.7490     4.9520     5.7930 nh         1 PJK      -0.813400
     17 CL1          1.8700     6.0210     4.3340 cl         1 PJK      -0.218000
     18 H1          -2.2950     3.6470     3.9630 ha         1 PJK       0.131000
     19 H2          -6.3230     5.2920     4.9870 hc         1 PJK       0.038700
     20 H3          -6.5490     5.4470     7.4050 hc         1 PJK       0.054700
     21 H4          -5.6580     3.9460     7.6330 hc         1 PJK       0.054700
     22 H5          -3.8430     5.4730     7.8400 h1         1 PJK       0.028200
     23 H6          -4.5800     6.6460     6.7490 h1         1 PJK       0.028200
     24 H7          -4.3670     2.9880     5.3060 h1         1 PJK       0.051700
     25 H8          -4.4900     4.1540     3.9880 h1         1 PJK       0.051700
     26 H9           0.0090     4.1340     3.3880 ha         1 PJK       0.119000
     27 H10         -2.2150     6.8150     6.8690 ha         1 PJK       0.129000
     28 O01         -8.0150     3.2940     6.1360 o          1 PJK      -0.725000
     29 O03         -6.9020     2.5790     4.3360 o          1 PJK      -0.725000
@<TRIPOS>BOND
     1     1     9 ar  
     2     1    10 ar  
     3     1    18 1   
     4     2     3 1   
     5     2    11 ar  
     6     2    12 ar  
     7     3    13 1   
     8     3    14 1   
     9     3    15 1   
    10     4     5 1   
    11     4    28 1   
    12     4    29 1   
    13     5     6 1   
    14     5     8 1   
    15     5    19 1   
    16     6     7 1   
    17     6    20 1   
    18     6    21 1   
    19     7    16 1   
    20     7    22 1   
    21     7    23 1   
    22     8    16 1   
    23     8    24 1   
    24     8    25 1   
    25     9    12 ar  
    26     9    16 1   
    27    10    11 ar  
    28    10    26 1   
    29    11    17 1   
    30    12    27 1   
@<TRIPOS>SUBSTRUCTURE
     1 PJK         1 TEMP              0 ****  ****    0 ROOT
