@<TRIPOS>MOLECULE
PJL
   17    16     1     0     0
SMALL
No Charge or Current Charge


@<TRIPOS>ATOM
      1 O14         -3.7940    -0.7940     0.1310 o          1 PJL      -0.720500
      2 C12         -3.1540     0.0510     0.7330 c          1 PJL       0.732000
      3 O13         -3.1680     0.1830     1.9450 o          1 PJL      -0.720500
      4 C10         -2.1530     0.8640    -0.0500 c3         1 PJL      -0.303700
      5 C4          -0.8870     0.0700    -0.0580 c2         1 PJL       0.592200
      6 N5           0.1560     0.5330    -0.6710 ne         1 PJL      -0.725100
      7 C6           1.2900    -0.2470    -0.6360 c          1 PJL       0.707700
      8 O8           1.3640    -1.3650    -1.1180 o          1 PJL      -0.586100
      9 C7           2.4250     0.4190     0.0440 ce         1 PJL      -0.336200
     10 C2           3.6380    -0.1440     0.2040 c2         1 PJL       0.006100
     11 O1           4.6380     0.5040     0.8310 oh         1 PJL      -0.541100
     12 H2          -2.4710     0.9760    -1.0930 hc         1 PJL       0.045700
     13 H3          -1.9370     1.8110     0.4570 hc         1 PJL       0.045700
     14 H4          -0.8460    -0.8820     0.4670 h4         1 PJL      -0.033200
     15 H5           2.2260     1.4190     0.4200 ha         1 PJL       0.203000
     16 H6           3.8740    -1.1500    -0.1620 h4         1 PJL       0.178000
     17 H7           5.4300    -0.0810     0.8390 ho         1 PJL       0.457000
@<TRIPOS>BOND
     1     1     2 1   
     2     2     3 1   
     3     2     4 1   
     4     4     5 1   
     5     4    12 1   
     6     4    13 1   
     7     5     6 2   
     8     5    14 1   
     9     6     7 1   
    10     7     8 2   
    11     7     9 1   
    12     9    10 2   
    13     9    15 1   
    14    10    11 1   
    15    10    16 1   
    16    11    17 1   
@<TRIPOS>SUBSTRUCTURE
     1 PJL         1 TEMP              0 ****  ****    0 ROOT
