@<TRIPOS>MOLECULE
PJL
   17    16     1     0     0
SMALL
abcg2


@<TRIPOS>ATOM
      1 O14         -2.9930    -1.2470    -0.1860 o          1 PJL      -0.720500
      2 C12         -3.2980    -0.0840     0.1410 c          1 PJL       0.732000
      3 O13         -4.4320     0.4180     0.1910 o          1 PJL      -0.720500
      4 C10         -2.1190     0.8490     0.5190 c3         1 PJL      -0.303700
      5 C4          -0.8260     0.1240     0.4920 c2         1 PJL       0.592200
      6 N5           0.1100     0.4280    -0.3080 ne         1 PJL      -0.725100
      7 C6           1.2810    -0.3270    -0.3290 c          1 PJL       0.707700
      8 O8           1.2730    -1.5260    -0.5570 o          1 PJL      -0.586100
      9 C7           2.4830     0.4700    -0.1200 ce         1 PJL      -0.336200
     10 C2           3.6900    -0.1160    -0.1020 c2         1 PJL       0.006100
     11 O1           4.8060     0.5710     0.1010 oh         1 PJL      -0.541100
     12 H2          -2.0880     1.7030    -0.1620 hc         1 PJL       0.045700
     13 H3          -2.2900     1.2450     1.5250 hc         1 PJL       0.045700
     14 H4          -0.7060    -0.6790     1.2240 h4         1 PJL      -0.033200
     15 H5           2.3790     1.5380     0.0290 ha         1 PJL       0.203000
     16 H6           3.7900    -1.1870    -0.2520 h4         1 PJL       0.178000
     17 H7           5.5710    -0.0130     0.0760 ho         1 PJL       0.457000
@<TRIPOS>BOND
     1     1     2 1   
     2     2     3 1   
     3     2     4 1   
     4     4     5 1   
     5     4    12 1   
     6     4    13 1   
     7     5     6 2   
     8     5    14 1   
     9     6     7 1   
    10     7     8 2   
    11     7     9 1   
    12     9    10 2   
    13     9    15 1   
    14    10    11 1   
    15    10    16 1   
    16    11    17 1   
@<TRIPOS>SUBSTRUCTURE
     1 PJL         1 TEMP              0 ****  ****    0 ROOT
