@<TRIPOS>MOLECULE
PJM
   72    78     1     0     0
SMALL
No Charge or Current Charge


@<TRIPOS>ATOM
      1 C4          10.1370    -0.8790    -0.4380 cp         1 PJM       0.142500
      2 C5          11.4130    -0.5100     0.0760 ca         1 PJM       0.076000
      3 C6          12.5380    -0.6640    -0.7550 ca         1 PJM       0.075900
      4 N1          12.4280    -1.1450    -2.0100 nb         1 PJM      -0.146000
      5 N3          10.0440    -1.3460    -1.7040 nb         1 PJM      -0.158000
      6 F5          11.5670     0.0140     1.3140 f          1 PJM      -0.154000
      7 C2          11.1820    -1.4610    -2.4220 ca         1 PJM       0.115900
      8 CBQ          8.8540    -0.7670     0.3360 cp         1 PJM      -0.135500
      9 CAX          7.6390    -0.4180    -0.3140 ca         1 PJM      -0.036000
     10 CAV          8.8030    -1.0260     1.7300 ca         1 PJM      -0.103000
     11 CBI          7.5980    -0.9240     2.4380 ca         1 PJM       0.162000
     12 FAC          7.5770    -1.1780     3.7650 f          1 PJM      -0.169000
     13 CAU          6.4120    -0.5690     1.7810 ca         1 PJM      -0.105000
     14 CBP          6.4190    -0.3130     0.3920 ca         1 PJM      -0.122500
     15 CBT          5.1830     0.0570    -0.3110 cc         1 PJM       0.476500
     16 OBF          4.0230     0.1520     0.3850 os         1 PJM      -0.273000
     17 NBD          5.0380     0.3240    -1.6000 nd         1 PJM      -0.346000
     18 NBC          3.7090     0.6150    -1.7800 nd         1 PJM      -0.350000
     19 CBS          3.1440     0.5030    -0.5870 cc         1 PJM       0.477500
     20 CBN          1.7310     0.7130    -0.2440 ca         1 PJM      -0.122500
     21 CAO          0.7980     1.0780    -1.2370 ca         1 PJM      -0.077500
     22 CAK         -0.5560     1.2800    -0.9170 ca         1 PJM      -0.080500
     23 CAN          1.2760     0.5560     1.0820 ca         1 PJM      -0.077500
     24 CAJ         -0.0770     0.7590     1.4050 ca         1 PJM      -0.080500
     25 CBL         -1.0150     1.1230     0.4140 ca         1 PJM      -0.130600
     26 CBG         -2.4660     1.3330     0.8020 c          1 PJM       0.613700
     27 OAA         -2.8550     1.2150     1.9560 o          1 PJM      -0.573100
     28 NBE         -3.3350     1.6680    -0.2130 ns         1 PJM      -0.503900
     29 CBV         -4.7640     1.9510    -0.0280 c3         1 PJM       0.145000
     30 CAY         -5.2710     2.9780    -1.0660 c3         1 PJM       0.061600
     31 NBW         -4.5250     4.2490    -1.0480 na         1 PJM      -0.171500
     32 CAR         -3.5920     4.6640    -1.9750 cc         1 PJM      -0.242000
     33 CAF         -3.1620     5.8910    -1.5400 cd         1 PJM       0.238900
     34 NAZ         -3.8060     6.2440    -0.3710 nd         1 PJM      -0.667000
     35 CAT         -4.6240     5.2390    -0.0920 cc         1 PJM       0.398400
     36 CBR         -5.6060     0.6710    -0.0680 ca         1 PJM      -0.097300
     37 CBK         -6.7130     0.4900     0.7930 ca         1 PJM       0.133000
     38 ClA         -7.2010     1.7340     1.9460 cl         1 PJM      -0.200000
     39 CAW         -7.4740    -0.6900     0.7360 ca         1 PJM      -0.093000
     40 CAQ         -5.2980    -0.3490    -0.9940 ca         1 PJM      -0.091000
     41 CAP         -6.0640    -1.5260    -1.0460 ca         1 PJM      -0.098000
     42 CBO         -7.1660    -1.7240    -0.1800 cp         1 PJM      -0.012000
     43 CBM         -7.9820    -2.9780    -0.2360 cp         1 PJM      -0.061000
     44 CAL         -8.5320    -3.5460     0.9420 ca         1 PJM      -0.070000
     45 CAH         -9.2980    -4.7250     0.8900 ca         1 PJM      -0.152500
     46 CBH         -9.5270    -5.3540    -0.3410 ca         1 PJM       0.180000
     47 FAB        -10.2630    -6.4860    -0.3920 f          1 PJM      -0.175000
     48 CAI         -8.9960    -4.8150    -1.5210 ca         1 PJM      -0.152500
     49 CAM         -8.2290    -3.6370    -1.4690 ca         1 PJM      -0.070000
     50 H1          13.5370    -0.3930    -0.4150 h4         1 PJM       0.045100
     51 H2          11.0840    -1.8440    -3.4360 h5         1 PJM       0.062100
     52 H3           7.6510    -0.2160    -1.3840 ha         1 PJM       0.161000
     53 H4           9.6970    -1.3260     2.2700 ha         1 PJM       0.146000
     54 H5           5.4930    -0.5000     2.3580 ha         1 PJM       0.147000
     55 H6           1.1190     1.2070    -2.2700 ha         1 PJM       0.138000
     56 H7          -1.2320     1.5620    -1.7190 ha         1 PJM       0.133000
     57 H8           1.9670     0.2760     1.8750 ha         1 PJM       0.138000
     58 H9          -0.3940     0.6290     2.4380 ha         1 PJM       0.133000
     59 H10         -2.9430     1.7670    -1.1380 hn         1 PJM       0.316500
     60 H11         -4.8690     2.4170     0.9610 h1         1 PJM       0.105700
     61 H12         -5.2040     2.5420    -2.0700 h1         1 PJM       0.072200
     62 H13         -6.3290     3.1930    -0.8690 h1         1 PJM       0.072200
     63 H14         -3.3100     4.0830    -2.8440 h4         1 PJM       0.148000
     64 H15         -2.4270     6.5380    -2.0030 h4         1 PJM       0.039100
     65 H16         -5.2920     5.1640     0.7590 h5         1 PJM       0.057100
     66 H17         -8.3260    -0.7930     1.4010 ha         1 PJM       0.135000
     67 H18         -4.4620    -0.2370    -1.6800 ha         1 PJM       0.115000
     68 H19         -5.7880    -2.2980    -1.7600 ha         1 PJM       0.122000
     69 H20         -8.3530    -3.0790     1.9080 ha         1 PJM       0.120500
     70 H21         -9.7100    -5.1510     1.8010 ha         1 PJM       0.135500
     71 H22         -9.1800    -5.3060    -2.4730 ha         1 PJM       0.135500
     72 H23         -7.8360    -3.2240    -2.3950 ha         1 PJM       0.120500
@<TRIPOS>BOND
     1     1     2 ar  
     2     1     5 ar  
     3     1     8 1   
     4     2     3 ar  
     5     2     6 1   
     6     3     4 ar  
     7     3    50 1   
     8     4     7 ar  
     9     5     7 ar  
    10     7    51 1   
    11     8     9 ar  
    12     8    10 ar  
    13     9    14 ar  
    14     9    52 1   
    15    10    11 ar  
    16    10    53 1   
    17    11    12 1   
    18    11    13 ar  
    19    13    14 ar  
    20    13    54 1   
    21    14    15 1   
    22    15    16 1   
    23    15    17 2   
    24    16    19 1   
    25    17    18 1   
    26    18    19 2   
    27    19    20 1   
    28    20    21 ar  
    29    20    23 ar  
    30    21    22 ar  
    31    21    55 1   
    32    22    25 ar  
    33    22    56 1   
    34    23    24 ar  
    35    23    57 1   
    36    24    25 ar  
    37    24    58 1   
    38    25    26 1   
    39    26    27 2   
    40    26    28 1   
    41    28    29 1   
    42    28    59 1   
    43    29    30 1   
    44    29    36 1   
    45    29    60 1   
    46    30    31 1   
    47    30    61 1   
    48    30    62 1   
    49    31    32 1   
    50    31    35 1   
    51    32    33 2   
    52    32    63 1   
    53    33    34 1   
    54    33    64 1   
    55    34    35 2   
    56    35    65 1   
    57    36    37 ar  
    58    36    40 ar  
    59    37    38 1   
    60    37    39 ar  
    61    39    42 ar  
    62    39    66 1   
    63    40    41 ar  
    64    40    67 1   
    65    41    42 ar  
    66    41    68 1   
    67    42    43 1   
    68    43    44 ar  
    69    43    49 ar  
    70    44    45 ar  
    71    44    69 1   
    72    45    46 ar  
    73    45    70 1   
    74    46    47 1   
    75    46    48 ar  
    76    48    49 ar  
    77    48    71 1   
    78    49    72 1   
@<TRIPOS>SUBSTRUCTURE
     1 PJM         1 TEMP              0 ****  ****    0 ROOT
