@<TRIPOS>MOLECULE
PJM
   72    78     1     0     0
SMALL
abcg2


@<TRIPOS>ATOM
      1 C4           9.8830    -0.8990    -0.4330 cp         1 PJM       0.142500
      2 C5          11.0950    -0.9110     0.2430 ca         1 PJM       0.076000
      3 C6          12.2640    -0.7260    -0.4680 ca         1 PJM       0.075900
      4 N1          12.2430    -0.5270    -1.7770 nb         1 PJM      -0.146000
      5 N3           9.8890    -0.6780    -1.7450 nb         1 PJM      -0.158000
      6 F5          11.1530    -1.0770     1.5640 f          1 PJM      -0.154000
      7 C2          11.0490    -0.5050    -2.3510 ca         1 PJM       0.115900
      8 CBQ          8.5720    -1.0810     0.2190 cp         1 PJM      -0.135500
      9 CAX          7.4870    -0.3570    -0.2620 ca         1 PJM      -0.036000
     10 CAV          8.3950    -1.9780     1.2710 ca         1 PJM      -0.103000
     11 CBI          7.1340    -2.1190     1.8140 ca         1 PJM       0.162000
     12 FAC          6.9630    -2.9920     2.8130 f          1 PJM      -0.169000
     13 CAU          6.0430    -1.4030     1.3700 ca         1 PJM      -0.105000
     14 CBP          6.2310    -0.5110     0.3170 ca         1 PJM      -0.122500
     15 CBT          5.1220     0.2710    -0.2000 cc         1 PJM       0.476500
     16 OBF          3.8990     0.1380     0.3330 os         1 PJM      -0.273000
     17 NBD          5.1250     1.1320    -1.1590 nd         1 PJM      -0.346000
     18 NBC          3.8510     1.5960    -1.2760 nd         1 PJM      -0.350000
     19 CBS          3.1480     0.9890    -0.3810 cc         1 PJM       0.477500
     20 CBN          1.7310     1.1250    -0.0980 ca         1 PJM      -0.122500
     21 CAO          0.9680     2.0010    -0.8690 ca         1 PJM      -0.077500
     22 CAK         -0.3870     2.1340    -0.6280 ca         1 PJM      -0.080500
     23 CAN          1.1260     0.3990     0.9270 ca         1 PJM      -0.077500
     24 CAJ         -0.2270     0.5480     1.1730 ca         1 PJM      -0.080500
     25 CBL         -0.9970     1.4010     0.3890 ca         1 PJM      -0.130600
     26 CBG         -2.4520     1.5290     0.6950 c          1 PJM       0.613700
     27 OAA         -2.8820     1.4040     1.8290 o          1 PJM      -0.573100
     28 NBE         -3.2470     1.7900    -0.3640 ns         1 PJM      -0.503900
     29 CBV         -4.6680     1.9780    -0.2210 c3         1 PJM       0.145000
     30 CAY         -5.1880     2.8150    -1.3950 c3         1 PJM       0.061600
     31 NBW         -4.6130     4.1400    -1.4110 na         1 PJM      -0.171500
     32 CAR         -3.5310     4.5600    -2.1360 cc         1 PJM      -0.242000
     33 CAF         -3.3160     5.8530    -1.7550 cd         1 PJM       0.238900
     34 NAZ         -4.2350     6.2270    -0.8150 nd         1 PJM      -0.667000
     35 CAT         -4.9910     5.1770    -0.6310 cc         1 PJM       0.398400
     36 CBR         -5.4380     0.6780    -0.1370 ca         1 PJM      -0.097300
     37 CBK         -6.6780     0.6010     0.4910 ca         1 PJM       0.133000
     38 CLA         -7.3720     2.0150     1.2250 cl         1 PJM      -0.200000
     39 CAW         -7.4040    -0.5760     0.5500 ca         1 PJM      -0.093000
     40 CAQ         -4.9550    -0.4890    -0.7200 ca         1 PJM      -0.091000
     41 CAP         -5.6680    -1.6750    -0.6730 ca         1 PJM      -0.098000
     42 CBO         -6.9050    -1.7380    -0.0340 cp         1 PJM      -0.012000
     43 CBM         -7.6720    -2.9970     0.0320 cp         1 PJM      -0.061000
     44 CAL         -8.3950    -3.3340     1.1770 ca         1 PJM      -0.070000
     45 CAH         -9.1240    -4.5110     1.2460 ca         1 PJM      -0.152500
     46 CBH         -9.1210    -5.3550     0.1520 ca         1 PJM       0.180000
     47 FAB         -9.8250    -6.4950     0.2110 f          1 PJM      -0.175000
     48 CAI         -8.4170    -5.0600    -0.9990 ca         1 PJM      -0.152500
     49 CAM         -7.6940    -3.8780    -1.0500 ca         1 PJM      -0.070000
     50 H1          13.2240    -0.7330     0.0370 h4         1 PJM       0.045100
     51 H2          11.0200    -0.3320    -3.4200 h5         1 PJM       0.062100
     52 H3           7.6220     0.3330    -1.0830 ha         1 PJM       0.161000
     53 H4           9.2040    -2.5870     1.6490 ha         1 PJM       0.146000
     54 H5           5.0780    -1.5480     1.8370 ha         1 PJM       0.147000
     55 H6           1.4320     2.5800    -1.6560 ha         1 PJM       0.138000
     56 H7          -0.9550     2.8350    -1.2250 ha         1 PJM       0.133000
     57 H8           1.7010    -0.2830     1.5390 ha         1 PJM       0.138000
     58 H9          -0.6870    -0.0140     1.9740 ha         1 PJM       0.133000
     59 H10         -2.8630     1.7070    -1.2930 hn         1 PJM       0.316500
     60 H11         -4.8290     2.5420     0.6990 h1         1 PJM       0.105700
     61 H12         -4.9610     2.3250    -2.3420 h1         1 PJM       0.072200
     62 H13         -6.2720     2.9020    -1.3330 h1         1 PJM       0.072200
     63 H14         -3.0370     3.9260    -2.8520 h4         1 PJM       0.148000
     64 H15         -2.5560     6.5300    -2.1140 h4         1 PJM       0.039100
     65 H16         -5.8290     5.1070     0.0460 h5         1 PJM       0.057100
     66 H17         -8.3700    -0.5790     1.0360 ha         1 PJM       0.135000
     67 H18         -3.9900    -0.4780    -1.2100 ha         1 PJM       0.115000
     68 H19         -5.2400    -2.5630    -1.1200 ha         1 PJM       0.122000
     69 H20         -8.3800    -2.6810     2.0400 ha         1 PJM       0.120500
     70 H21         -9.6780    -4.7680     2.1390 ha         1 PJM       0.135500
     71 H22         -8.4380    -5.7340    -1.8450 ha         1 PJM       0.135500
     72 H23         -7.1570    -3.6350    -1.9580 ha         1 PJM       0.120500
@<TRIPOS>BOND
     1     1     2 ar  
     2     1     5 ar  
     3     1     8 1   
     4     2     3 ar  
     5     2     6 1   
     6     3     4 ar  
     7     3    50 1   
     8     4     7 ar  
     9     5     7 ar  
    10     7    51 1   
    11     8     9 ar  
    12     8    10 ar  
    13     9    14 ar  
    14     9    52 1   
    15    10    11 ar  
    16    10    53 1   
    17    11    12 1   
    18    11    13 ar  
    19    13    14 ar  
    20    13    54 1   
    21    14    15 1   
    22    15    16 1   
    23    15    17 2   
    24    16    19 1   
    25    17    18 1   
    26    18    19 2   
    27    19    20 1   
    28    20    21 ar  
    29    20    23 ar  
    30    21    22 ar  
    31    21    55 1   
    32    22    25 ar  
    33    22    56 1   
    34    23    24 ar  
    35    23    57 1   
    36    24    25 ar  
    37    24    58 1   
    38    25    26 1   
    39    26    27 2   
    40    26    28 1   
    41    28    29 1   
    42    28    59 1   
    43    29    30 1   
    44    29    36 1   
    45    29    60 1   
    46    30    31 1   
    47    30    61 1   
    48    30    62 1   
    49    31    32 1   
    50    31    35 1   
    51    32    33 2   
    52    32    63 1   
    53    33    34 1   
    54    33    64 1   
    55    34    35 2   
    56    35    65 1   
    57    36    37 ar  
    58    36    40 ar  
    59    37    38 1   
    60    37    39 ar  
    61    39    42 ar  
    62    39    66 1   
    63    40    41 ar  
    64    40    67 1   
    65    41    42 ar  
    66    41    68 1   
    67    42    43 1   
    68    43    44 ar  
    69    43    49 ar  
    70    44    45 ar  
    71    44    69 1   
    72    45    46 ar  
    73    45    70 1   
    74    46    47 1   
    75    46    48 ar  
    76    48    49 ar  
    77    48    71 1   
    78    49    72 1   
@<TRIPOS>SUBSTRUCTURE
     1 PJM         1 TEMP              0 ****  ****    0 ROOT
