@<TRIPOS>MOLECULE
PJP
   32    32     1     0     0
SMALL
abcg2


@<TRIPOS>ATOM
      1 C1           6.4430     2.8360    -8.5100 c3         1 PJP      -0.096100
      2 C2           7.0820     4.1570    -8.1280 c3         1 PJP       0.214300
      3 C11          9.6150     8.7690    -8.5810 ca         1 PJP      -0.134500
      4 C12          8.4290     9.4540    -8.8420 ca         1 PJP      -0.020300
      5 C13          7.3900     8.7650    -9.4660 ca         1 PJP      -0.134500
      6 C14          7.5180     7.4290    -9.8090 ca         1 PJP      -0.013000
      7 C15          8.2640    10.8880    -8.4410 c3         1 PJP      -0.057800
      8 C10          9.7620     7.4340    -8.9200 ca         1 PJP      -0.013000
      9 C4           9.4700     4.2620    -7.4070 c3         1 PJP       0.214300
     10 C5           9.4670     2.9610    -6.6250 c3         1 PJP      -0.096100
     11 C9           8.7050     6.7650    -9.5270 ca         1 PJP      -0.307500
     12 N3           8.5000     4.2300    -8.5040 n3         1 PJP      -0.749500
     13 O7           7.8430     4.6900   -10.8640 o          1 PJP      -0.538000
     14 O8          10.2610     4.7740   -10.1970 o          1 PJP      -0.538000
     15 S6           8.8640     5.0380    -9.8890 sy         1 PJP       1.168600
     16 H1           5.3990     2.8210    -8.1940 hc         1 PJP       0.045200
     17 H2           6.4710     2.6830    -9.5870 hc         1 PJP       0.045200
     18 H3           6.9510     1.9970    -8.0330 hc         1 PJP       0.045200
     19 H4           7.0250     4.3080    -7.0490 h1         1 PJP       0.045450
     20 H5           6.5170     4.9860    -8.5620 h1         1 PJP       0.045450
     21 H6          10.4430     9.2860    -8.1130 ha         1 PJP       0.116500
     22 H7           6.4660     9.2820    -9.6970 ha         1 PJP       0.116500
     23 H8           6.7000     6.9230   -10.3040 ha         1 PJP       0.133000
     24 H9           7.7690    10.9580    -7.4700 hc         1 PJP       0.049367
     25 H10          9.2240    11.3950    -8.3530 hc         1 PJP       0.049367
     26 H11          7.6500    11.4350    -9.1560 hc         1 PJP       0.049367
     27 H12         10.6990     6.9320    -8.7190 ha         1 PJP       0.133000
     28 H13         10.4650     4.4200    -7.8180 h1         1 PJP       0.045450
     29 H14          9.2590     5.1040    -6.7370 h1         1 PJP       0.045450
     30 H15         10.2380     3.0010    -5.8560 hc         1 PJP       0.045200
     31 H16          8.5150     2.7830    -6.1250 hc         1 PJP       0.045200
     32 H17          9.6760     2.1140    -7.2780 hc         1 PJP       0.045200
@<TRIPOS>BOND
     1     1     2 1   
     2     1    16 1   
     3     1    17 1   
     4     1    18 1   
     5     2    12 1   
     6     2    19 1   
     7     2    20 1   
     8     3     4 ar  
     9     3     8 ar  
    10     3    21 1   
    11     4     5 ar  
    12     4     7 1   
    13     5     6 ar  
    14     5    22 1   
    15     6    11 ar  
    16     6    23 1   
    17     7    24 1   
    18     7    25 1   
    19     7    26 1   
    20     8    11 ar  
    21     8    27 1   
    22     9    10 1   
    23     9    12 1   
    24     9    28 1   
    25     9    29 1   
    26    10    30 1   
    27    10    31 1   
    28    10    32 1   
    29    11    15 1   
    30    12    15 1   
    31    13    15 2   
    32    14    15 2   
@<TRIPOS>SUBSTRUCTURE
     1 PJP         1 TEMP              0 ****  ****    0 ROOT
