@<TRIPOS>MOLECULE
PJP
   32    32     1     0     0
SMALL
No Charge or Current Charge


@<TRIPOS>ATOM
      1 C1           7.7780     1.9620    -9.5920 c3         1 PJP      -0.096100
      2 C2           7.4570     2.8890    -8.4000 c3         1 PJP       0.214300
      3 C11         10.0470     8.4490    -9.1790 ca         1 PJP      -0.134500
      4 C12          9.1280     9.4320    -8.7690 ca         1 PJP      -0.020300
      5 C13          7.7620     9.1060    -8.6790 ca         1 PJP      -0.134500
      6 C14          7.3150     7.8120    -9.0000 ca         1 PJP      -0.013000
      7 C15          9.6070    10.8310    -8.4160 c3         1 PJP      -0.057800
      8 C10          9.6080     7.1530    -9.5010 ca         1 PJP      -0.013000
      9 C4           7.9740     4.9770    -7.1460 c3         1 PJP       0.214300
     10 C5           8.5210     4.2440    -5.9030 c3         1 PJP      -0.096100
     11 C9           8.2390     6.8300    -9.4130 ca         1 PJP      -0.307500
     12 N3           8.0960     4.2340    -8.4300 n3         1 PJP      -0.749500
     13 O7           6.2190     5.1560    -9.9130 o          1 PJP      -0.538000
     14 O8           8.5430     4.6740   -10.9020 o          1 PJP      -0.538000
     15 S6           7.6840     5.1590    -9.8160 sy         1 PJP       1.168600
     16 H1           7.4150     0.9490    -9.3840 hc         1 PJP       0.045200
     17 H2           7.2920     2.3040   -10.5120 hc         1 PJP       0.045200
     18 H3           8.8600     1.9080    -9.7590 hc         1 PJP       0.045200
     19 H4           7.7900     2.3400    -7.5110 h1         1 PJP       0.045450
     20 H5           6.3660     2.9870    -8.3150 h1         1 PJP       0.045450
     21 H6          11.1060     8.6870    -9.2470 ha         1 PJP       0.116500
     22 H7           7.0430     9.8560    -8.3590 ha         1 PJP       0.116500
     23 H8           6.2540     7.5800    -8.9220 ha         1 PJP       0.133000
     24 H9           9.8570    10.9010    -7.3510 hc         1 PJP       0.049367
     25 H10         10.5010    11.1040    -8.9900 hc         1 PJP       0.049367
     26 H11          8.8380    11.5830    -8.6300 hc         1 PJP       0.049367
     27 H12         10.3340     6.4030    -9.8120 ha         1 PJP       0.133000
     28 H13          8.5460     5.9110    -7.1910 h1         1 PJP       0.045450
     29 H14          6.9250     5.2490    -6.9610 h1         1 PJP       0.045450
     30 H15          8.5720     4.9360    -5.0550 hc         1 PJP       0.045200
     31 H16          7.8730     3.4110    -5.6100 hc         1 PJP       0.045200
     32 H17          9.5310     3.8620    -6.0930 hc         1 PJP       0.045200
@<TRIPOS>BOND
     1     1     2 1   
     2     1    16 1   
     3     1    17 1   
     4     1    18 1   
     5     2    12 1   
     6     2    19 1   
     7     2    20 1   
     8     3     4 ar  
     9     3     8 ar  
    10     3    21 1   
    11     4     5 ar  
    12     4     7 1   
    13     5     6 ar  
    14     5    22 1   
    15     6    11 ar  
    16     6    23 1   
    17     7    24 1   
    18     7    25 1   
    19     7    26 1   
    20     8    11 ar  
    21     8    27 1   
    22     9    10 1   
    23     9    12 1   
    24     9    28 1   
    25     9    29 1   
    26    10    30 1   
    27    10    31 1   
    28    10    32 1   
    29    11    15 1   
    30    12    15 1   
    31    13    15 2   
    32    14    15 2   
@<TRIPOS>SUBSTRUCTURE
     1 PJP         1 TEMP              0 ****  ****    0 ROOT
