@<TRIPOS>MOLECULE
PJQ
   56    59     1     0     0
SMALL
No Charge or Current Charge


@<TRIPOS>ATOM
      1 C10        117.9340   136.3790   157.8620 ca         1 PJQ      -0.093000
      2 C11        118.9410   136.1500   156.9080 ca         1 PJQ      -0.092000
      3 C12        120.1080   135.4470   157.2540 ca         1 PJQ       0.101100
      4 C02        119.1610   137.0330   165.1710 c          1 PJQ       0.638600
      5 C03        119.2850   136.6470   163.7660 cc         1 PJQ      -0.359600
      6 C04        119.5040   137.5720   162.7880 cd         1 PJQ       0.465900
      7 C06        119.4110   135.6960   161.7880 cc         1 PJQ       0.691800
      8 C08        119.2770   135.2330   159.5410 ca         1 PJQ       0.118100
      9 C09        118.0960   135.9130   159.1770 ca         1 PJQ      -0.089000
     10 C14        122.2940   134.5520   156.4440 c3         1 PJQ       0.515000
     11 C18        120.2680   134.9780   158.5790 ca         1 PJQ      -0.091000
     12 C21        117.4900   133.6960   163.5720 ca         1 PJQ      -0.124300
     13 C22        117.0500   132.9480   162.4600 ca         1 PJQ      -0.076500
     14 C23        115.6940   132.5950   162.3360 ca         1 PJQ      -0.111000
     15 C24        114.7740   132.9870   163.3210 ca         1 PJQ       0.133000
     16 C26        115.2050   133.7320   164.4310 ca         1 PJQ      -0.111000
     17 C27        116.5600   134.0860   164.5560 ca         1 PJQ      -0.076500
     18 C30        119.5120   139.3580   164.3980 c          1 PJQ       0.622000
     19 C33        117.7580   139.2330   167.2510 c3         1 PJQ      -0.094400
     20 C34        117.6410   139.6350   168.7340 c3         1 PJQ       0.166600
     21 F15        123.0760   135.1510   157.3720 f          1 PJQ      -0.106667
     22 F16        122.1070   133.2670   156.8230 f          1 PJQ      -0.106667
     23 F17        123.0020   134.5230   155.2940 f          1 PJQ      -0.106667
     24 N05        119.5940   136.9820   161.5500 nd         1 PJQ      -0.758000
     25 N19        119.2240   135.4200   163.1190 na         1 PJQ      -0.131500
     26 N28        119.6160   138.9080   163.0730 n          1 PJQ      -0.360300
     27 N31        119.2750   138.4080   165.4070 n          1 PJQ      -0.374400
     28 O01        118.9720   136.2220   166.0640 o          1 PJQ      -0.553000
     29 O07        119.4390   134.7170   160.8130 os         1 PJQ      -0.358400
     30 O13        121.0460   135.2490   156.2550 os         1 PJQ      -0.400100
     31 O35        118.3880   140.8300   168.9830 oh         1 PJQ      -0.659000
     32 O36        119.6210   140.5480   164.6590 o          1 PJQ      -0.543000
     33 Cl1        113.0790   132.5460   163.1640 cl         1 PJQ      -0.199000
     34 H1         117.0290   136.9130   157.5810 ha         1 PJQ       0.130000
     35 H2         118.8130   136.5110   155.8910 ha         1 PJQ       0.141000
     36 H3         117.3100   136.0770   159.9100 ha         1 PJQ       0.138000
     37 H4         121.1470   134.4230   158.8860 ha         1 PJQ       0.151000
     38 H5         119.5830   133.3530   163.1810 h1         1 PJQ       0.085700
     39 H6         119.2560   134.0850   164.7500 h1         1 PJQ       0.085700
     40 H7         117.7550   132.6420   161.6900 ha         1 PJQ       0.130500
     41 H8         115.3570   132.0200   161.4780 ha         1 PJQ       0.132500
     42 H9         114.4900   134.0340   165.1910 ha         1 PJQ       0.132500
     43 H10        116.8840   134.6650   165.4180 ha         1 PJQ       0.130500
     44 H11        119.1250   140.7180   162.0740 h1         1 PJQ       0.060033
     45 H12        120.8670   140.3220   162.1070 h1         1 PJQ       0.060033
     46 H13        119.7680   139.4530   161.0050 h1         1 PJQ       0.060033
     47 H14        119.5970   138.1090   167.4910 h1         1 PJQ       0.078200
     48 H15        119.8440   139.7590   166.9550 h1         1 PJQ       0.078200
     49 H16        117.3750   140.0450   166.6220 hc         1 PJQ       0.057200
     50 H17        117.1120   138.3640   167.0760 hc         1 PJQ       0.057200
     51 H18        116.5820   139.7950   168.9770 h1         1 PJQ       0.019200
     52 H19        118.0090   138.8140   169.3650 h1         1 PJQ       0.019200
     53 H20        118.2530   141.0590   169.9290 ho         1 PJQ       0.441000
     54 C20        118.9560   134.0930   163.6960 c3         1 PJQ       0.131900
     55 C29        119.8580   139.9050   162.0000 c3         1 PJQ       0.100300
     56 C32        119.1990   138.8810   166.8190 c3         1 PJQ       0.102000
@<TRIPOS>BOND
     1     1     2 ar  
     2     1     9 ar  
     3     1    34 1   
     4     2     3 ar  
     5     2    35 1   
     6     3    11 ar  
     7     3    30 1   
     8     4     5 1   
     9     4    27 1   
    10     4    28 2   
    11     5     6 2   
    12     5    25 1   
    13     6    24 1   
    14     6    26 1   
    15     7    24 2   
    16     7    25 1   
    17     7    29 1   
    18     8     9 ar  
    19     8    11 ar  
    20     8    29 1   
    21     9    36 1   
    22    10    21 1   
    23    10    22 1   
    24    10    23 1   
    25    10    30 1   
    26    11    37 1   
    27    12    13 ar  
    28    12    17 ar  
    29    12    54 1   
    30    13    14 ar  
    31    13    40 1   
    32    14    15 ar  
    33    14    41 1   
    34    15    16 ar  
    35    15    33 1   
    36    16    17 ar  
    37    16    42 1   
    38    17    43 1   
    39    18    26 1   
    40    18    27 1   
    41    18    32 2   
    42    19    20 1   
    43    19    49 1   
    44    19    50 1   
    45    19    56 1   
    46    20    31 1   
    47    20    51 1   
    48    20    52 1   
    49    25    54 1   
    50    26    55 1   
    51    27    56 1   
    52    31    53 1   
    53    38    54 1   
    54    39    54 1   
    55    44    55 1   
    56    45    55 1   
    57    46    55 1   
    58    47    56 1   
    59    48    56 1   
@<TRIPOS>SUBSTRUCTURE
     1 PJQ         1 TEMP              0 ****  ****    0 ROOT
