@<TRIPOS>MOLECULE
PJQ
   56    59     1     0     0
SMALL
abcg2


@<TRIPOS>ATOM
      1 C10        118.1980   135.7780   157.4920 ca         1 PJQ      -0.093000
      2 C11        119.4290   135.9040   156.8630 ca         1 PJQ      -0.092000
      3 C12        120.5780   135.6730   157.5990 ca         1 PJQ       0.101100
      4 C02        119.1720   136.9730   165.1360 c          1 PJQ       0.638600
      5 C03        119.1820   136.6510   163.7560 cc         1 PJQ      -0.359600
      6 C04        119.3020   137.6050   162.7840 cd         1 PJQ       0.465900
      7 C06        119.2390   135.7800   161.7770 cc         1 PJQ       0.691800
      8 C08        119.2900   135.2150   159.5330 ca         1 PJQ       0.118100
      9 C09        118.1180   135.4310   158.8330 ca         1 PJQ      -0.089000
     10 C14        122.3730   134.7930   156.3880 c3         1 PJQ       0.515000
     11 C18        120.5330   135.3290   158.9390 ca         1 PJQ      -0.091000
     12 C21        117.4350   133.7840   163.6310 ca         1 PJQ      -0.124300
     13 C22        116.8310   133.1470   162.5510 ca         1 PJQ      -0.076500
     14 C23        115.4720   132.8710   162.5540 ca         1 PJQ      -0.111000
     15 C24        114.7130   133.2370   163.6540 ca         1 PJQ       0.133000
     16 C26        115.2900   133.8650   164.7460 ca         1 PJQ      -0.111000
     17 C27        116.6510   134.1340   164.7260 ca         1 PJQ      -0.076500
     18 C30        119.3450   139.3460   164.3780 c          1 PJQ       0.622000
     19 C33        117.8080   139.1250   167.2060 c3         1 PJQ      -0.094400
     20 C34        117.7500   139.5200   168.6680 c3         1 PJQ       0.166600
     21 F15        122.5330   133.7490   157.2030 f          1 PJQ      -0.106667
     22 F16        121.6530   134.3660   155.3500 f          1 PJQ      -0.106667
     23 F17        123.5620   135.1660   155.9460 f          1 PJQ      -0.106667
     24 N05        119.3380   137.0690   161.5480 nd         1 PJQ      -0.758000
     25 N19        119.1540   135.4430   163.0690 na         1 PJQ      -0.131500
     26 N28        119.3820   138.9320   163.0670 n          1 PJQ      -0.360300
     27 N31        119.2640   138.3560   165.3510 n          1 PJQ      -0.374400
     28 O01        119.0990   136.1870   166.0680 o          1 PJQ      -0.553000
     29 O07        119.2230   134.8260   160.8590 os         1 PJQ      -0.358400
     30 O13        121.8190   135.8470   157.0030 os         1 PJQ      -0.400100
     31 O35        118.4960   140.7030   168.8600 oh         1 PJQ      -0.659000
     32 O36        119.3890   140.5230   164.6780 o          1 PJQ      -0.543000
     33 CL1        113.0140   132.8940   163.6690 cl         1 PJQ      -0.199000
     34 H1         117.2910   135.9550   156.9310 ha         1 PJQ       0.130000
     35 H2         119.4880   136.1900   155.8220 ha         1 PJQ       0.141000
     36 H3         117.1590   135.3290   159.3230 ha         1 PJQ       0.138000
     37 H4         121.4400   135.1640   159.5070 ha         1 PJQ       0.151000
     38 H5         119.4630   133.3900   163.0180 h1         1 PJQ       0.085700
     39 H6         119.3200   134.0910   164.6150 h1         1 PJQ       0.085700
     40 H7         117.4190   132.8470   161.6930 ha         1 PJQ       0.130500
     41 H8         115.0150   132.3720   161.7100 ha         1 PJQ       0.132500
     42 H9         114.6930   134.1420   165.6040 ha         1 PJQ       0.132500
     43 H10        117.1030   134.6200   165.5810 ha         1 PJQ       0.130500
     44 H11        119.5020   140.8920   162.3800 h1         1 PJQ       0.060033
     45 H12        120.3970   139.7160   161.4090 h1         1 PJQ       0.060033
     46 H13        118.6290   139.7870   161.3100 h1         1 PJQ       0.060033
     47 H14        119.6580   138.0320   167.3600 h1         1 PJQ       0.078200
     48 H15        119.8670   139.6880   166.8300 h1         1 PJQ       0.078200
     49 H16        117.3740   139.9170   166.5900 hc         1 PJQ       0.057200
     50 H17        117.1780   138.2420   167.0760 hc         1 PJQ       0.057200
     51 H18        116.7000   139.6570   168.9550 h1         1 PJQ       0.019200
     52 H19        118.1410   138.6960   169.2800 h1         1 PJQ       0.019200
     53 H20        118.4810   140.9200   169.7960 ho         1 PJQ       0.441000
     54 C20        118.9050   134.1130   163.6120 c3         1 PJQ       0.131900
     55 C29        119.4840   139.8880   161.9760 c3         1 PJQ       0.100300
     56 C32        119.2250   138.8160   166.7420 c3         1 PJQ       0.102000
@<TRIPOS>BOND
     1     1     2 ar  
     2     1     9 ar  
     3     1    34 1   
     4     2     3 ar  
     5     2    35 1   
     6     3    11 ar  
     7     3    30 1   
     8     4     5 1   
     9     4    27 1   
    10     4    28 2   
    11     5     6 2   
    12     5    25 1   
    13     6    24 1   
    14     6    26 1   
    15     7    24 2   
    16     7    25 1   
    17     7    29 1   
    18     8     9 ar  
    19     8    11 ar  
    20     8    29 1   
    21     9    36 1   
    22    10    21 1   
    23    10    22 1   
    24    10    23 1   
    25    10    30 1   
    26    11    37 1   
    27    12    13 ar  
    28    12    17 ar  
    29    12    54 1   
    30    13    14 ar  
    31    13    40 1   
    32    14    15 ar  
    33    14    41 1   
    34    15    16 ar  
    35    15    33 1   
    36    16    17 ar  
    37    16    42 1   
    38    17    43 1   
    39    18    26 1   
    40    18    27 1   
    41    18    32 2   
    42    19    20 1   
    43    19    49 1   
    44    19    50 1   
    45    19    56 1   
    46    20    31 1   
    47    20    51 1   
    48    20    52 1   
    49    25    54 1   
    50    26    55 1   
    51    27    56 1   
    52    31    53 1   
    53    38    54 1   
    54    39    54 1   
    55    44    55 1   
    56    45    55 1   
    57    46    55 1   
    58    47    56 1   
    59    48    56 1   
@<TRIPOS>SUBSTRUCTURE
     1 PJQ         1 TEMP              0 ****  ****    0 ROOT
