@<TRIPOS>MOLECULE
PJS
   33    34     1     0     0
SMALL
No Charge or Current Charge


@<TRIPOS>ATOM
      1 C1           4.7760    17.0900   -12.8980 c3         1 PJS      -0.135400
      2 C2           3.6990    17.7890   -13.7110 ca         1 PJS       0.138300
      3 C11         -2.2590    19.3220   -13.3600 c3         1 PJS       0.160300
      4 C12         -2.9710    18.2780   -14.2250 ca         1 PJS      -0.135300
      5 C13         -3.5300    17.1220   -13.6380 ca         1 PJS       0.220000
      6 C15         -4.1790    16.1560   -14.4240 ca         1 PJS      -0.154000
      7 C16         -4.2850    16.3320   -15.8120 ca         1 PJS      -0.067000
      8 C17         -3.7440    17.4820   -16.4070 ca         1 PJS      -0.128000
      9 C18         -3.0940    18.4510   -15.6230 ca         1 PJS       0.156000
     10 C10         -0.2730    20.8230   -13.7300 c3         1 PJS       0.096300
     11 C4           3.1310    18.9920   -15.5800 ca         1 PJS       0.108900
     12 C5           1.7950    19.0230   -15.1470 ca         1 PJS      -0.202000
     13 C6           1.4760    18.3930   -13.9200 ca         1 PJS       0.076500
     14 C7           0.0600    18.3530   -13.3630 c          1 PJS       0.509600
     15 F14         -3.4620    16.9260   -12.3010 f          1 PJS      -0.164000
     16 N20          2.4440    17.7640   -13.2120 nb         1 PJS      -0.147000
     17 N3           4.0900    18.3780   -14.8610 nb         1 PJS      -0.173000
     18 N9          -0.8060    19.4420   -13.6340 n          1 PJS      -0.406800
     19 O8          -0.3410    17.3760   -12.7410 o          1 PJS      -0.555100
     20 Cl19        -2.4590    19.8830   -16.4350 cl         1 PJS      -0.208000
     21 H1           5.5600    16.6760   -13.5430 hc         1 PJS       0.062367
     22 H2           5.2510    17.7900   -12.2010 hc         1 PJS       0.062367
     23 H3           4.3620    16.2610   -12.3120 hc         1 PJS       0.062367
     24 H4          -2.7430    20.2920   -13.5340 h1         1 PJS       0.064200
     25 H5          -2.3930    19.0970   -12.2950 h1         1 PJS       0.064200
     26 H6          -4.6020    15.2730   -13.9530 ha         1 PJS       0.139000
     27 H7          -4.7880    15.5850   -16.4230 ha         1 PJS       0.123000
     28 H8          -3.8300    17.6270   -17.4810 ha         1 PJS       0.133000
     29 H9          -0.8950    21.5110   -13.1440 h1         1 PJS       0.043033
     30 H10          0.7500    20.8730   -13.3370 h1         1 PJS       0.043033
     31 H11         -0.2760    21.1520   -14.7770 h1         1 PJS       0.043033
     32 H12          3.4360    19.4570   -16.5160 h4         1 PJS       0.026100
     33 H13          1.0330    19.4980   -15.7600 ha         1 PJS       0.145000
@<TRIPOS>BOND
     1     1     2 1   
     2     1    21 1   
     3     1    22 1   
     4     1    23 1   
     5     2    16 ar  
     6     2    17 ar  
     7     3     4 1   
     8     3    18 1   
     9     3    24 1   
    10     3    25 1   
    11     4     5 ar  
    12     4     9 ar  
    13     5     6 ar  
    14     5    15 1   
    15     6     7 ar  
    16     6    26 1   
    17     7     8 ar  
    18     7    27 1   
    19     8     9 ar  
    20     8    28 1   
    21     9    20 1   
    22    10    18 1   
    23    10    29 1   
    24    10    30 1   
    25    10    31 1   
    26    11    12 ar  
    27    11    17 ar  
    28    11    32 1   
    29    12    13 ar  
    30    12    33 1   
    31    13    14 1   
    32    13    16 ar  
    33    14    18 1   
    34    14    19 2   
@<TRIPOS>SUBSTRUCTURE
     1 PJS         1 TEMP              0 ****  ****    0 ROOT
