@<TRIPOS>MOLECULE
PJS
   33    34     1     0     0
SMALL
bcc


@<TRIPOS>ATOM
      1 C1           4.6520    17.3210   -12.8210 c3         1 PJS      -0.135400
      2 C2           3.5850    17.8490   -13.7230 ca         1 PJS       0.664300
      3 C11         -2.1810    19.3060   -13.2930 c3         1 PJS       0.160300
      4 C12         -2.8740    18.3020   -14.1750 ca         1 PJS      -0.135300
      5 C13         -3.4720    17.1620   -13.6560 ca         1 PJS       0.184900
      6 C15         -4.1270    16.2230   -14.4290 ca         1 PJS      -0.172000
      7 C16         -4.1890    16.4210   -15.7990 ca         1 PJS      -0.085000
      8 C17         -3.6100    17.5410   -16.3730 ca         1 PJS      -0.146000
      9 C18         -2.9670    18.4580   -15.5560 ca         1 PJS       0.064400
     10 C10         -0.1950    20.7480   -13.6180 c3         1 PJS       0.096300
     11 C4           2.9800    18.7460   -15.7160 ca         1 PJS       0.437200
     12 C5           1.6640    18.8380   -15.3010 ca         1 PJS      -0.350600
     13 C6           1.3990    18.3730   -14.0230 ca         1 PJS       0.404800
     14 C7          -0.0120    18.2890   -13.5070 c          1 PJS       0.576600
     15 F14         -3.4210    16.9570   -12.3340 f          1 PJS      -0.128900
     16 N20          2.3440    17.8740   -13.2420 nb         1 PJS      -0.673000
     17 N3           3.9380    18.2630   -14.9370 nb         1 PJS      -0.699000
     18 N9          -0.7520    19.4080   -13.5610 n          1 PJS      -0.473800
     19 O8          -0.4410    17.2080   -13.1370 o          1 PJS      -0.555100
     20 CL19        -2.2630    19.8550   -16.3030 cl         1 PJS      -0.116400
     21 H1           5.5990    17.2300   -13.3460 hc         1 PJS       0.062367
     22 H2           4.7900    17.9880   -11.9690 hc         1 PJS       0.062367
     23 H3           4.3700    16.3460   -12.4220 hc         1 PJS       0.062367
     24 H4          -2.6090    20.2920   -13.4780 h1         1 PJS       0.064200
     25 H5          -2.3570    19.0830   -12.2410 h1         1 PJS       0.064200
     26 H6          -4.5720    15.3540   -13.9650 ha         1 PJS       0.157000
     27 H7          -4.6940    15.6980   -16.4240 ha         1 PJS       0.141000
     28 H8          -3.6590    17.7020   -17.4410 ha         1 PJS       0.151000
     29 H9          -0.6190    21.3480   -12.8130 h1         1 PJS       0.043033
     30 H10          0.8810    20.7360   -13.4740 h1         1 PJS       0.043033
     31 H11         -0.4150    21.2360   -14.5680 h1         1 PJS       0.043033
     32 H12          3.2720    19.0740   -16.7070 h4         1 PJS       0.026100
     33 H13          0.8910    19.2370   -15.9440 ha         1 PJS       0.163000
@<TRIPOS>BOND
     1     1     2 1   
     2     1    21 1   
     3     1    22 1   
     4     1    23 1   
     5     2    16 ar  
     6     2    17 ar  
     7     3     4 1   
     8     3    18 1   
     9     3    24 1   
    10     3    25 1   
    11     4     5 ar  
    12     4     9 ar  
    13     5     6 ar  
    14     5    15 1   
    15     6     7 ar  
    16     6    26 1   
    17     7     8 ar  
    18     7    27 1   
    19     8     9 ar  
    20     8    28 1   
    21     9    20 1   
    22    10    18 1   
    23    10    29 1   
    24    10    30 1   
    25    10    31 1   
    26    11    12 ar  
    27    11    17 ar  
    28    11    32 1   
    29    12    13 ar  
    30    12    33 1   
    31    13    14 1   
    32    13    16 ar  
    33    14    18 1   
    34    14    19 2   
@<TRIPOS>SUBSTRUCTURE
     1 PJS         1 TEMP              0 ****  ****    0 ROOT
