@<TRIPOS>MOLECULE
PJU
   59    62     1     0     0
SMALL
No Charge or Current Charge


@<TRIPOS>ATOM
      1 OAS         34.2630    -2.1650    10.3510 oh         1 PJU      -0.650000
      2 CAR         33.6790    -1.7080    11.5850 c3         1 PJU       0.174600
      3 CAM         32.4010    -0.7940    11.4560 c6         1 PJU       0.149500
      4 CAN         31.2140    -1.5300    10.7430 c6         1 PJU       0.133600
      5 OAO         31.4070    -1.5870     9.3070 os         1 PJU      -0.438000
      6 CAP         31.5910    -0.2850     8.7020 c6         1 PJU       0.119600
      7 CAQ         32.7960     0.4600     9.3570 c6         1 PJU       0.136800
      8 NAL         32.6420     0.5760    10.8480 n3         1 PJU      -0.728600
      9 CAK         31.6190     1.6120    11.2110 c3         1 PJU       0.167800
     10 CAJ         31.5140     2.0100    12.7090 c3         1 PJU       0.160600
     11 OAG         30.6840     1.0510    13.3940 os         1 PJU      -0.370100
     12 CAB         30.3800     1.1510    14.7380 ca         1 PJU       0.135100
     13 CAC         30.7200     2.2930    15.4970 ca         1 PJU      -0.193000
     14 CAD         30.3910     2.3570    16.8610 ca         1 PJU      -0.074000
     15 CAE         29.7260     1.2840    17.4740 ca         1 PJU      -0.144000
     16 CAF         29.3890     0.1440    16.7260 ca         1 PJU      -0.067000
     17 CAA         29.7110     0.0710    15.3560 ca         1 PJU      -0.111300
     18 CAH         29.3710    -1.1940    14.5670 c3         1 PJU       0.054200
     19 CAI         30.5140    -2.1840    14.5280 cc         1 PJU      -0.124300
     20 CAU         31.7050    -2.0820    15.1880 cd         1 PJU      -0.152000
     21 NAT         32.4230    -3.2250    14.8480 na         1 PJU       0.034800
     22 CAX         33.7790    -3.5770    15.3340 c3         1 PJU       0.335300
     23 FAZ         34.6450    -3.6960    14.2990 f          1 PJU      -0.098000
     24 FAY         33.7620    -4.7680    15.9790 f          1 PJU      -0.098000
     25 NAW         31.7180    -4.0470    13.9820 nd         1 PJU      -0.467800
     26 CAV         30.5720    -3.4100    13.8010 cc         1 PJU       0.198000
     27 C4          29.5210    -3.9800    12.9180 ca         1 PJU       0.146000
     28 N3          28.3380    -3.3400    12.7680 nb         1 PJU      -0.257000
     29 C5          29.7390    -5.1940    12.2240 ca         1 PJU      -0.240000
     30 C6          28.7140    -5.6830    11.4000 ca         1 PJU       0.255000
     31 Cl6         28.9180    -7.1810    10.5060 cl         1 PJU      -0.167000
     32 N1          27.5450    -5.0360    11.2600 nb         1 PJU      -0.239000
     33 C2          27.4290    -3.9000    11.9570 ca         1 PJU       0.395900
     34 NBH         26.2550    -3.2360    11.8280 nv         1 PJU      -1.066900
     35 H1          35.0490    -2.7010    10.5900 ho         1 PJU       0.437000
     36 H2          34.4290    -1.1530    12.1640 h1         1 PJU       0.019200
     37 H3          33.3970    -2.5790    12.1890 h1         1 PJU       0.019200
     38 H4          32.0940    -0.6700    12.5020 h1         1 PJU       0.072700
     39 H5          30.2690    -1.0090    10.9570 h1         1 PJU       0.049200
     40 H6          31.1230    -2.5540    11.1290 h1         1 PJU       0.049200
     41 H7          31.7760    -0.4160     7.6260 h1         1 PJU       0.046200
     42 H8          30.6680     0.3010     8.8160 h1         1 PJU       0.046200
     43 H9          33.7210    -0.0730     9.0990 h1         1 PJU       0.069200
     44 H10         32.8900     1.4560     8.8980 h1         1 PJU       0.069200
     45 H12         31.8600     2.5370    10.6700 h1         1 PJU       0.045200
     46 H13         30.6200     1.3110    10.8680 h1         1 PJU       0.045200
     47 H14         32.5160     2.0610    13.1530 h1         1 PJU       0.044700
     48 H15         31.0570     3.0060    12.7660 h1         1 PJU       0.044700
     49 H16         31.2340     3.1370    15.0480 ha         1 PJU       0.116000
     50 H17         30.6520     3.2380    17.4440 ha         1 PJU       0.112000
     51 H18         29.4750     1.3330    18.5310 ha         1 PJU       0.117000
     52 H19         28.8840    -0.6870    17.2140 ha         1 PJU       0.126000
     53 H20         29.0810    -0.9190    13.5460 hc         1 PJU       0.069200
     54 H21         28.4900    -1.6760    15.0080 hc         1 PJU       0.069200
     55 H22         32.0870    -1.3150    15.8530 h4         1 PJU       0.168000
     56 H23         34.1280    -2.7970    16.0150 h3         1 PJU       0.082700
     57 H24         30.6710    -5.7430    12.3140 ha         1 PJU       0.165000
     58 H25         26.2030    -2.2750    12.1580 hn         1 PJU       0.504500
     59 H26         25.6270    -3.4930    11.0700 hn         1 PJU       0.504500
@<TRIPOS>BOND
     1     1     2 1   
     2     1    35 1   
     3     2     3 1   
     4     2    36 1   
     5     2    37 1   
     6     3     4 1   
     7     3     8 1   
     8     3    38 1   
     9     4     5 1   
    10     4    39 1   
    11     4    40 1   
    12     5     6 1   
    13     6     7 1   
    14     6    41 1   
    15     6    42 1   
    16     7     8 1   
    17     7    43 1   
    18     7    44 1   
    19     8     9 1   
    20     9    10 1   
    21     9    45 1   
    22     9    46 1   
    23    10    11 1   
    24    10    47 1   
    25    10    48 1   
    26    11    12 1   
    27    12    13 ar  
    28    12    17 ar  
    29    13    14 ar  
    30    13    49 1   
    31    14    15 ar  
    32    14    50 1   
    33    15    16 ar  
    34    15    51 1   
    35    16    17 ar  
    36    16    52 1   
    37    17    18 1   
    38    18    19 1   
    39    18    53 1   
    40    18    54 1   
    41    19    20 2   
    42    19    26 1   
    43    20    21 1   
    44    20    55 1   
    45    21    22 1   
    46    21    25 1   
    47    22    23 1   
    48    22    24 1   
    49    22    56 1   
    50    25    26 2   
    51    26    27 1   
    52    27    28 ar  
    53    27    29 ar  
    54    28    33 ar  
    55    29    30 ar  
    56    29    57 1   
    57    30    31 1   
    58    30    32 ar  
    59    32    33 ar  
    60    33    34 1   
    61    34    58 1   
    62    34    59 1   
@<TRIPOS>SUBSTRUCTURE
     1 PJU         1 TEMP              0 ****  ****    0 ROOT
