@<TRIPOS>MOLECULE
PJU
   59    62     1     0     0
SMALL
abcg2


@<TRIPOS>ATOM
      1 OAS         35.3050    -1.1280    10.8090 oh         1 PJU      -0.650000
      2 CAR         34.0390    -1.2080    11.4690 c3         1 PJU       0.174600
      3 CAM         32.9960    -0.2810    10.8610 c6         1 PJU       0.149500
      4 CAN         32.6680    -0.5710     9.3880 c6         1 PJU       0.133600
      5 OAO         33.6240    -0.0360     8.4750 os         1 PJU      -0.438000
      6 CAP         33.7750     1.3730     8.6550 c6         1 PJU       0.119600
      7 CAQ         34.2210     1.6770    10.0760 c6         1 PJU       0.136800
      8 NAL         33.2960     1.1480    11.0910 n3         1 PJU      -0.728600
      9 CAK         32.0960     1.9720    11.2600 c3         1 PJU       0.167800
     10 CAJ         31.5960     2.0530    12.6890 c3         1 PJU       0.160600
     11 OAG         30.9200     0.8400    13.0470 os         1 PJU      -0.370100
     12 CAB         30.2210     0.8150    14.2180 ca         1 PJU       0.135100
     13 CAC         30.3150     1.8160    15.1870 ca         1 PJU      -0.193000
     14 CAD         29.5720     1.7210    16.3600 ca         1 PJU      -0.074000
     15 CAE         28.7330     0.6370    16.5750 ca         1 PJU      -0.144000
     16 CAF         28.6430    -0.3550    15.6030 ca         1 PJU      -0.067000
     17 CAA         29.3760    -0.2890    14.4220 ca         1 PJU      -0.111300
     18 CAH         29.2750    -1.3960    13.3990 c3         1 PJU       0.054200
     19 CAI         30.2120    -2.5370    13.6880 cc         1 PJU      -0.124300
     20 CAU         31.5810    -2.4610    13.7640 cd         1 PJU      -0.152000
     21 NAT         32.0380    -3.7240    14.0000 na         1 PJU       0.034800
     22 CAX         33.3970    -4.1270    14.1140 c3         1 PJU       0.335300
     23 FAZ         33.7190    -4.9930    13.1120 f          1 PJU      -0.098000
     24 FAY         33.5960    -4.8030    15.2750 f          1 PJU      -0.098000
     25 NAW         31.0450    -4.6250    14.0810 nd         1 PJU      -0.467800
     26 CAV         29.9270    -3.9190    13.9050 cc         1 PJU       0.198000
     27 C4          28.6330    -4.6140    13.9690 ca         1 PJU       0.146000
     28 N3          27.5560    -3.8890    14.2760 nb         1 PJU      -0.257000
     29 C5          28.5550    -5.9890    13.7280 ca         1 PJU      -0.240000
     30 C6          27.2870    -6.5320    13.8400 ca         1 PJU       0.255000
     31 CL6         27.0750    -8.2500    13.5640 cl         1 PJU      -0.167000
     32 N1          26.2030    -5.8540    14.1380 nb         1 PJU      -0.239000
     33 C2          26.3800    -4.5320    14.3470 ca         1 PJU       0.395900
     34 NBH         25.2920    -3.8090    14.6790 nv         1 PJU      -1.066900
     35 H1          35.9170    -1.7050    11.2820 ho         1 PJU       0.437000
     36 H2          34.1530    -0.9410    12.5250 h1         1 PJU       0.019200
     37 H3          33.6540    -2.2330    11.4120 h1         1 PJU       0.019200
     38 H4          32.0870    -0.5040    11.4220 h1         1 PJU       0.072700
     39 H5          31.6810    -0.1500     9.1540 h1         1 PJU       0.049200
     40 H6          32.6320    -1.6460     9.2100 h1         1 PJU       0.049200
     41 H7          34.5240     1.7010     7.9330 h1         1 PJU       0.046200
     42 H8          32.8250     1.8750     8.4250 h1         1 PJU       0.046200
     43 H9          35.1990     1.2240    10.2390 h1         1 PJU       0.069200
     44 H10         34.3180     2.7540    10.2180 h1         1 PJU       0.069200
     45 H12         32.3490     2.9950    10.9750 h1         1 PJU       0.045200
     46 H13         31.2660     1.6640    10.6110 h1         1 PJU       0.045200
     47 H14         32.4350     2.2240    13.3690 h1         1 PJU       0.044700
     48 H15         30.8930     2.8860    12.7750 h1         1 PJU       0.044700
     49 H16         30.9650     2.6650    15.0380 ha         1 PJU       0.116000
     50 H17         29.6550     2.5050    17.1030 ha         1 PJU       0.112000
     51 H18         28.1490     0.5630    17.4840 ha         1 PJU       0.117000
     52 H19         27.9890    -1.2050    15.7550 ha         1 PJU       0.126000
     53 H20         29.4960    -0.9990    12.4080 hc         1 PJU       0.069200
     54 H21         28.2580    -1.7780    13.3870 hc         1 PJU       0.069200
     55 H22         32.2510    -1.6230    13.6810 h4         1 PJU       0.168000
     56 H23         34.0500    -3.2580    14.0720 h3         1 PJU       0.082700
     57 H24         29.4190    -6.5790    13.4710 ha         1 PJU       0.165000
     58 H25         25.3630    -2.8060    14.7080 hn         1 PJU       0.504500
     59 H26         24.3810    -4.2300    14.6100 hn         1 PJU       0.504500
@<TRIPOS>BOND
     1     1     2 1   
     2     1    35 1   
     3     2     3 1   
     4     2    36 1   
     5     2    37 1   
     6     3     4 1   
     7     3     8 1   
     8     3    38 1   
     9     4     5 1   
    10     4    39 1   
    11     4    40 1   
    12     5     6 1   
    13     6     7 1   
    14     6    41 1   
    15     6    42 1   
    16     7     8 1   
    17     7    43 1   
    18     7    44 1   
    19     8     9 1   
    20     9    10 1   
    21     9    45 1   
    22     9    46 1   
    23    10    11 1   
    24    10    47 1   
    25    10    48 1   
    26    11    12 1   
    27    12    13 ar  
    28    12    17 ar  
    29    13    14 ar  
    30    13    49 1   
    31    14    15 ar  
    32    14    50 1   
    33    15    16 ar  
    34    15    51 1   
    35    16    17 ar  
    36    16    52 1   
    37    17    18 1   
    38    18    19 1   
    39    18    53 1   
    40    18    54 1   
    41    19    20 2   
    42    19    26 1   
    43    20    21 1   
    44    20    55 1   
    45    21    22 1   
    46    21    25 1   
    47    22    23 1   
    48    22    24 1   
    49    22    56 1   
    50    25    26 2   
    51    26    27 1   
    52    27    28 ar  
    53    27    29 ar  
    54    28    33 ar  
    55    29    30 ar  
    56    29    57 1   
    57    30    31 1   
    58    30    32 ar  
    59    32    33 ar  
    60    33    34 1   
    61    34    58 1   
    62    34    59 1   
@<TRIPOS>SUBSTRUCTURE
     1 PJU         1 TEMP              0 ****  ****    0 ROOT
