@<TRIPOS>MOLECULE
PJV
   21    22     1     0     0
SMALL
bcc


@<TRIPOS>ATOM
      1 C2           1.4760    18.5420   -13.8420 ca         1 PJV      -0.019900
      2 C3           0.7230    19.6670   -14.1500 ca         1 PJV      -0.093000
      3 C11          5.7170    15.9050   -11.7760 ca         1 PJV      -0.180300
      4 C12          5.8020    17.0640   -10.9970 ca         1 PJV       0.309200
      5 C10          4.9040    15.9360   -12.8750 ca         1 PJV      -0.207300
      6 C4           1.2300    20.6070   -15.0360 ca         1 PJV      -0.124000
      7 C5           2.4770    20.4220   -15.6140 ca         1 PJV      -0.107000
      8 C6           3.2270    19.2970   -15.3040 ca         1 PJV      -0.118000
      9 C7           2.7240    18.3560   -14.4210 ca         1 PJV       0.131100
     10 C9           4.2400    17.1450   -13.1040 ca         1 PJV       0.589600
     11 N13          5.1400    18.1630   -11.2810 nb         1 PJV      -0.277000
     12 N14          4.3560    18.2030   -12.3410 nb         1 PJV      -0.389000
     13 O8           3.4360    17.2080   -14.1830 os         1 PJV      -0.360400
     14 BR1          0.8040    17.2520   -12.6510 br         1 PJV      -0.077100
     15 H1          -0.2510    19.8130   -13.7040 ha         1 PJV       0.150000
     16 H3           6.4270    17.1010   -10.1140 h4         1 PJV       0.032100
     17 H4           4.7730    15.0890   -13.5340 ha         1 PJV       0.165000
     18 H5           0.6390    21.4810   -15.2760 ha         1 PJV       0.139000
     19 H6           2.8720    21.1530   -16.3060 ha         1 PJV       0.139000
     20 H7           4.2000    19.1390   -15.7510 ha         1 PJV       0.147000
     21 H2           6.2780    15.0200   -11.5100 ha         1 PJV       0.152000
@<TRIPOS>BOND
     1     1     2 ar  
     2     1     9 ar  
     3     1    14 1   
     4     2     6 ar  
     5     2    15 1   
     6     3     4 ar  
     7     3     5 ar  
     8     3    21 1   
     9     4    11 ar  
    10     4    16 1   
    11     5    10 ar  
    12     5    17 1   
    13     6     7 ar  
    14     6    18 1   
    15     7     8 ar  
    16     7    19 1   
    17     8     9 ar  
    18     8    20 1   
    19     9    13 1   
    20    10    12 ar  
    21    10    13 1   
    22    11    12 ar  
@<TRIPOS>SUBSTRUCTURE
     1 PJV         1 TEMP              0 ****  ****    0 ROOT
