@<TRIPOS>MOLECULE
PJV
   21    22     1     0     0
SMALL
No Charge or Current Charge


@<TRIPOS>ATOM
      1 C2           1.5040    18.5390   -13.8670 ca         1 PJV      -0.019900
      2 C3           0.7110    19.6680   -14.1410 ca         1 PJV      -0.075000
      3 C11          5.7040    15.8320   -11.6780 ca         1 PJV      -0.097000
      4 C12          5.8510    16.9740   -10.8690 ca         1 PJV       0.243900
      5 C10          4.9120    15.9410   -12.8390 ca         1 PJV      -0.124000
      6 C4           1.1560    20.6350   -15.0600 ca         1 PJV      -0.106000
      7 C5           2.3930    20.4740   -15.7090 ca         1 PJV      -0.089000
      8 C6           3.1880    19.3460   -15.4360 ca         1 PJV      -0.100000
      9 C7           2.7490    18.3830   -14.5120 ca         1 PJV       0.131100
     10 C9           4.3100    17.1790   -13.1280 ca         1 PJV       0.524300
     11 N13          5.2540    18.1480   -11.1910 nb         1 PJV      -0.277000
     12 N14          4.4940    18.2490   -12.3050 nb         1 PJV      -0.389000
     13 O8           3.5380    17.2840   -14.2650 os         1 PJV      -0.360400
     14 Br1          0.8620    17.2260   -12.6220 br         1 PJV      -0.077100
     15 H1          -0.2490    19.7920   -13.6450 ha         1 PJV       0.132000
     16 H3           6.4490    16.9540    -9.9600 h4         1 PJV       0.032100
     17 H4           4.7620    15.0940   -13.5010 ha         1 PJV       0.147000
     18 H5           0.5410    21.5070   -15.2720 ha         1 PJV       0.121000
     19 H6           2.7350    21.2210   -16.4220 ha         1 PJV       0.121000
     20 H7           4.1440    19.2190   -15.9380 ha         1 PJV       0.129000
     21 H2           6.1890    14.8970   -11.4090 ha         1 PJV       0.134000
@<TRIPOS>BOND
     1     1     2 ar  
     2     1     9 ar  
     3     1    14 1   
     4     2     6 ar  
     5     2    15 1   
     6     3     4 ar  
     7     3     5 ar  
     8     3    21 1   
     9     4    11 ar  
    10     4    16 1   
    11     5    10 ar  
    12     5    17 1   
    13     6     7 ar  
    14     6    18 1   
    15     7     8 ar  
    16     7    19 1   
    17     8     9 ar  
    18     8    20 1   
    19     9    13 1   
    20    10    12 ar  
    21    10    13 1   
    22    11    12 ar  
@<TRIPOS>SUBSTRUCTURE
     1 PJV         1 TEMP              0 ****  ****    0 ROOT
