@<TRIPOS>MOLECULE
PJX
   43    46     1     0     0
SMALL
No Charge or Current Charge


@<TRIPOS>ATOM
      1 N1           7.1980    -0.9120    20.5990 ns         1 PJX      -0.174000
      2 C4           8.1050    -0.2970    21.4480 c          1 PJX       0.595100
      3 C5           6.3250    -0.3380    19.6360 ca         1 PJX      -0.073000
      4 C6           6.3940    -0.8070    18.3070 ca         1 PJX       0.307900
      5 C7           4.7570     0.6620    17.5930 ca         1 PJX       0.356900
      6 C8           4.5900     1.1830    18.8910 ca         1 PJX      -0.090000
      7 C10          3.4600     2.6890    20.4370 ca         1 PJX      -0.107000
      8 C13          5.3810     0.6740    19.9460 ca         1 PJX      -0.002000
      9 C15         11.3070    -0.8940    21.8170 ca         1 PJX      -0.050000
     10 C17         12.8510     0.1990    23.3380 ca         1 PJX      -0.051000
     11 C16         12.5960    -0.4270    22.1110 ca         1 PJX       0.074000
     12 C18         11.8140     0.3600    24.2740 ca         1 PJX      -0.180000
     13 C19         10.5060    -0.0990    23.9980 ca         1 PJX       0.358000
     14 N            9.4540     0.0650    24.9510 nh         1 PJX      -0.817400
     15 C            9.6590     0.7640    26.2430 c3         1 PJX       0.208100
     16 C14         10.2640    -0.7360    22.7520 ca         1 PJX      -0.140300
     17 C3           8.8640    -1.2560    22.3980 c6         1 PJX      -0.079400
     18 C2           8.0440    -1.5630    23.6720 c6         1 PJX      -0.080400
     19 C1           8.0610    -0.3560    24.6320 c6         1 PJX       0.221800
     20 O            8.3360     0.9070    21.4060 o          1 PJX      -0.563100
     21 C12          5.1770     1.1660    21.2550 ca         1 PJX      -0.087000
     22 C11          4.2240     2.1720    21.4950 ca         1 PJX      -0.094000
     23 C9           3.6380     2.1920    19.1360 ca         1 PJX      -0.084000
     24 N2           5.6360    -0.3230    17.2980 nb         1 PJX      -0.651000
     25 H1           7.1550    -1.9220    20.6690 hn         1 PJX       0.155000
     26 H2           7.1000    -1.5930    18.0370 h4         1 PJX       0.022100
     27 H3           4.1590     1.0350    16.7620 h4         1 PJX       0.022100
     28 H4           2.7230     3.4660    20.6270 ha         1 PJX       0.117000
     29 H5          11.1190    -1.3790    20.8620 ha         1 PJX       0.120000
     30 H6          13.8510     0.5590    23.5650 ha         1 PJX       0.126000
     31 H7          12.0440     0.8470    25.2150 ha         1 PJX       0.118000
     32 H8           8.7210     0.8270    26.8120 h1         1 PJX       0.038700
     33 H9          10.3910     0.2250    26.8600 h1         1 PJX       0.038700
     34 H10         10.0170     1.7880    26.0750 h1         1 PJX       0.038700
     35 H11          8.9250    -2.2230    21.8800 hc         1 PJX       0.061700
     36 H12          7.0100    -1.8310    23.4190 hc         1 PJX       0.058700
     37 H13          8.4760    -2.4330    24.1860 hc         1 PJX       0.058700
     38 H14          7.5130     0.4830    24.1780 h1         1 PJX       0.048200
     39 H15          7.5240    -0.6370    25.5500 h1         1 PJX       0.048200
     40 H16          5.7380     0.7750    22.0980 ha         1 PJX       0.118000
     41 H17          4.0760     2.5480    22.5050 ha         1 PJX       0.114000
     42 H18          3.0340     2.5880    18.3220 ha         1 PJX       0.118000
     43 Cl          13.8920    -0.6290    20.9390 cl         1 PJX      -0.220000
@<TRIPOS>BOND
     1     1     2 1   
     2     1     3 1   
     3     1    25 1   
     4     2    17 1   
     5     2    20 2   
     6     3     4 ar  
     7     3     8 ar  
     8     4    24 ar  
     9     4    26 1   
    10     5     6 ar  
    11     5    24 ar  
    12     5    27 1   
    13     6     8 ar  
    14     6    23 ar  
    15     7    22 ar  
    16     7    23 ar  
    17     7    28 1   
    18     8    21 ar  
    19     9    11 ar  
    20     9    16 ar  
    21     9    29 1   
    22    10    11 ar  
    23    10    12 ar  
    24    10    30 1   
    25    11    43 1   
    26    12    13 ar  
    27    12    31 1   
    28    13    14 1   
    29    13    16 ar  
    30    14    15 1   
    31    14    19 1   
    32    15    32 1   
    33    15    33 1   
    34    15    34 1   
    35    16    17 1   
    36    17    18 1   
    37    17    35 1   
    38    18    19 1   
    39    18    36 1   
    40    18    37 1   
    41    19    38 1   
    42    19    39 1   
    43    21    22 ar  
    44    21    40 1   
    45    22    41 1   
    46    23    42 1   
@<TRIPOS>SUBSTRUCTURE
     1 PJX         1 TEMP              0 ****  ****    0 ROOT
