@<TRIPOS>MOLECULE
PJX
   43    46     1     0     0
SMALL
abcg2


@<TRIPOS>ATOM
      1 N1           7.2530    -0.9640    20.5830 ns         1 PJX      -0.174000
      2 C4           8.1230    -0.3570    21.4340 c          1 PJX       0.595100
      3 C5           6.4660    -0.2750    19.6250 ca         1 PJX      -0.073000
      4 C6           6.6800    -0.5020    18.2890 ca         1 PJX       0.307900
      5 C7           5.0240     0.9360    17.6450 ca         1 PJX       0.356900
      6 C8           4.7000     1.2510    18.9860 ca         1 PJX      -0.090000
      7 C10          3.3520     2.4040    20.6240 ca         1 PJX      -0.107000
      8 C13          5.4370     0.6170    20.0260 ca         1 PJX      -0.002000
      9 C15         11.2260    -1.1150    21.8850 ca         1 PJX      -0.050000
     10 C17         12.7830     0.0470    23.2990 ca         1 PJX      -0.051000
     11 C16         12.5140    -0.6740    22.1470 ca         1 PJX       0.074000
     12 C18         11.7580     0.3140    24.1940 ca         1 PJX      -0.180000
     13 C19         10.4420    -0.1380    23.9660 ca         1 PJX       0.358000
     14 N            9.4450     0.0810    24.8940 nh         1 PJX      -0.817400
     15 C            9.6680     1.0120    25.9830 c3         1 PJX       0.208100
     16 C14         10.1880    -0.8490    22.7680 ca         1 PJX      -0.140300
     17 C3           8.7960    -1.3110    22.4200 c6         1 PJX      -0.079400
     18 C2           7.9350    -1.4250    23.6890 c6         1 PJX      -0.080400
     19 C1           8.0560    -0.1700    24.5340 c6         1 PJX       0.221800
     20 O            8.3050     0.8540    21.4410 o          1 PJX      -0.563100
     21 C12          5.0900     0.8870    21.3700 ca         1 PJX      -0.087000
     22 C11          4.0700     1.7590    21.6560 ca         1 PJX      -0.094000
     23 C9           3.6600     2.1520    19.3120 ca         1 PJX      -0.084000
     24 N2           5.9640     0.0870    17.2980 nb         1 PJX      -0.651000
     25 H1           7.2550    -1.9720    20.5450 hn         1 PJX       0.155000
     26 H2           7.4600    -1.1890    17.9810 h4         1 PJX       0.022100
     27 H3           4.4640     1.4130    16.8460 h4         1 PJX       0.022100
     28 H4           2.5540     3.0910    20.8760 ha         1 PJX       0.117000
     29 H5          11.0170    -1.6670    20.9770 ha         1 PJX       0.120000
     30 H6          13.7840     0.4030    23.5030 ha         1 PJX       0.126000
     31 H7          11.9920     0.8800    25.0820 ha         1 PJX       0.118000
     32 H8           8.7820     1.0250    26.6140 h1         1 PJX       0.038700
     33 H9          10.5140     0.7040    26.6000 h1         1 PJX       0.038700
     34 H10          9.8570     2.0340    25.6280 h1         1 PJX       0.038700
     35 H11          8.8550    -2.2950    21.9510 hc         1 PJX       0.061700
     36 H12          6.8900    -1.5980    23.4300 hc         1 PJX       0.058700
     37 H13          8.2810    -2.2850    24.2650 hc         1 PJX       0.058700
     38 H14          7.6290     0.6880    24.0000 h1         1 PJX       0.048200
     39 H15          7.4890    -0.2950    25.4570 h1         1 PJX       0.048200
     40 H16          5.6270     0.3990    22.1700 ha         1 PJX       0.118000
     41 H17          3.8070     1.9570    22.6880 ha         1 PJX       0.114000
     42 H18          3.1110     2.6300    18.5090 ha         1 PJX       0.118000
     43 CL          13.8040    -1.0230    21.0050 cl         1 PJX      -0.220000
@<TRIPOS>BOND
     1     1     2 1   
     2     1     3 1   
     3     1    25 1   
     4     2    17 1   
     5     2    20 2   
     6     3     4 ar  
     7     3     8 ar  
     8     4    24 ar  
     9     4    26 1   
    10     5     6 ar  
    11     5    24 ar  
    12     5    27 1   
    13     6     8 ar  
    14     6    23 ar  
    15     7    22 ar  
    16     7    23 ar  
    17     7    28 1   
    18     8    21 ar  
    19     9    11 ar  
    20     9    16 ar  
    21     9    29 1   
    22    10    11 ar  
    23    10    12 ar  
    24    10    30 1   
    25    11    43 1   
    26    12    13 ar  
    27    12    31 1   
    28    13    14 1   
    29    13    16 ar  
    30    14    15 1   
    31    14    19 1   
    32    15    32 1   
    33    15    33 1   
    34    15    34 1   
    35    16    17 1   
    36    17    18 1   
    37    17    35 1   
    38    18    19 1   
    39    18    36 1   
    40    18    37 1   
    41    19    38 1   
    42    19    39 1   
    43    21    22 ar  
    44    21    40 1   
    45    22    41 1   
    46    23    42 1   
@<TRIPOS>SUBSTRUCTURE
     1 PJX         1 TEMP              0 ****  ****    0 ROOT
