@<TRIPOS>MOLECULE
PJY
   25    25     1     0     0
SMALL
No Charge or Current Charge


@<TRIPOS>ATOM
      1 C1           1.9540    20.5510   -15.9290 c3         1 PJY       0.034900
      2 C3           1.8220    18.7600   -13.6700 ca         1 PJY       0.486300
      3 C12          4.0100    16.4500   -14.4870 c3         1 PJY       0.087300
      4 C13          6.0190    17.1430   -13.1230 c3         1 PJY       0.087300
      5 C5          -0.4000    18.2460   -13.2370 ca         1 PJY       0.362900
      6 C6          -0.0490    17.3960   -12.1790 ca         1 PJY      -0.179000
      7 C7           1.3070    17.2230   -11.8660 ca         1 PJY      -0.027000
      8 C8           2.2630    17.9020   -12.6430 ca         1 PJY      -0.185600
      9 C9           3.7140    17.7350   -12.3360 c          1 PJY       0.623700
     10 N11          4.5590    17.2150   -13.3430 n          1 PJY      -0.397800
     11 N4           0.5130    18.9250   -13.9640 nb         1 PJY      -0.695000
     12 O10          4.1570    18.0670   -11.2430 o          1 PJY      -0.588100
     13 S2           2.9780    19.7780   -14.5940 ss         1 PJY      -0.361300
     14 H1           2.5900    21.1790   -16.5660 h1         1 PJY       0.069700
     15 H2           1.4920    19.7690   -16.5450 h1         1 PJY       0.069700
     16 H3           1.1680    21.1740   -15.4850 h1         1 PJY       0.069700
     17 H4           3.0760    15.9490   -14.2020 h1         1 PJY       0.043700
     18 H5           3.8180    17.1230   -15.3310 h1         1 PJY       0.043700
     19 H6           4.7270    15.6820   -14.8060 h1         1 PJY       0.043700
     20 H7           6.3860    18.0980   -12.7260 h1         1 PJY       0.043700
     21 H8           6.2460    16.3430   -12.4070 h1         1 PJY       0.043700
     22 H9           6.5370    16.9370   -14.0690 h1         1 PJY       0.043700
     23 H10         -1.4450    18.3990   -13.5030 h4         1 PJY       0.021100
     24 H11         -0.8210    16.8810   -11.6150 ha         1 PJY       0.129000
     25 H12          1.6090    16.5680   -11.0500 ha         1 PJY       0.130000
@<TRIPOS>BOND
     1     1    13 1   
     2     1    14 1   
     3     1    15 1   
     4     1    16 1   
     5     2     8 ar  
     6     2    11 ar  
     7     2    13 1   
     8     3    10 1   
     9     3    17 1   
    10     3    18 1   
    11     3    19 1   
    12     4    10 1   
    13     4    20 1   
    14     4    21 1   
    15     4    22 1   
    16     5     6 ar  
    17     5    11 ar  
    18     5    23 1   
    19     6     7 ar  
    20     6    24 1   
    21     7     8 ar  
    22     7    25 1   
    23     8     9 1   
    24     9    10 1   
    25     9    12 2   
@<TRIPOS>SUBSTRUCTURE
     1 PJY         1 TEMP              0 ****  ****    0 ROOT
