@<TRIPOS>MOLECULE
PJY
   25    25     1     0     0
SMALL
abcg2


@<TRIPOS>ATOM
      1 C1           1.8480    20.5460   -15.8510 c3         1 PJY       0.034900
      2 C3           1.7880    18.7050   -13.7830 ca         1 PJY       0.486300
      3 C12          4.0780    16.3890   -14.4250 c3         1 PJY       0.087300
      4 C13          5.9730    17.1650   -13.1040 c3         1 PJY       0.087300
      5 C5          -0.3750    18.2280   -13.2380 ca         1 PJY       0.362900
      6 C6           0.0010    17.4130   -12.1860 ca         1 PJY      -0.179000
      7 C7           1.3570    17.2570   -11.9380 ca         1 PJY      -0.027000
      8 C8           2.2800    17.8890   -12.7530 ca         1 PJY      -0.185600
      9 C9           3.7400    17.8030   -12.4240 c          1 PJY       0.623700
     10 N11          4.5400    17.1930   -13.3130 n          1 PJY      -0.397800
     11 N4           0.4970    18.8660   -14.0120 nb         1 PJY      -0.695000
     12 O10          4.1390    18.2990   -11.3780 o          1 PJY      -0.588100
     13 S2           2.9380    19.5690   -14.8000 ss         1 PJY      -0.361300
     14 H1           2.5070    21.1320   -16.4890 h1         1 PJY       0.069700
     15 H2           1.2200    19.9110   -16.4700 h1         1 PJY       0.069700
     16 H3           1.2290    21.2170   -15.2620 h1         1 PJY       0.069700
     17 H4           2.9950    16.3520   -14.4720 h1         1 PJY       0.043700
     18 H5           4.4550    16.7860   -15.3680 h1         1 PJY       0.043700
     19 H6           4.4420    15.3660   -14.3120 h1         1 PJY       0.043700
     20 H7           6.2730    17.9240   -12.3890 h1         1 PJY       0.043700
     21 H8           6.2950    16.1880   -12.7370 h1         1 PJY       0.043700
     22 H9           6.4770    17.3570   -14.0520 h1         1 PJY       0.043700
     23 H10         -1.4220    18.3830   -13.4700 h4         1 PJY       0.021100
     24 H11         -0.7410    16.9180   -11.5760 ha         1 PJY       0.129000
     25 H12          1.6960    16.6380   -11.1170 ha         1 PJY       0.130000
@<TRIPOS>BOND
     1     1    13 1   
     2     1    14 1   
     3     1    15 1   
     4     1    16 1   
     5     2     8 ar  
     6     2    11 ar  
     7     2    13 1   
     8     3    10 1   
     9     3    17 1   
    10     3    18 1   
    11     3    19 1   
    12     4    10 1   
    13     4    20 1   
    14     4    21 1   
    15     4    22 1   
    16     5     6 ar  
    17     5    11 ar  
    18     5    23 1   
    19     6     7 ar  
    20     6    24 1   
    21     7     8 ar  
    22     7    25 1   
    23     8     9 1   
    24     9    10 1   
    25     9    12 2   
@<TRIPOS>SUBSTRUCTURE
     1 PJY         1 TEMP              0 ****  ****    0 ROOT
