@<TRIPOS>MOLECULE
PJZ
   82    81     1     0     0
SMALL
No Charge or Current Charge


@<TRIPOS>ATOM
      1 C1           1.4760    -5.8500    -2.7800 c3         1 PJZ      -0.110100
      2 C2           2.2280    -5.4270    -1.4940 c3         1 PJZ       0.177300
      3 O2           2.8470    -4.1400    -1.7150 os         1 PJZ      -0.449100
      4 C3           1.3040    -5.3010    -0.2530 c3         1 PJZ       0.163600
      5 O3           0.2020    -4.4190    -0.5580 os         1 PJZ      -0.438100
      6 C12        -14.5710     4.3350    -0.3550 c3         1 PJZ      -0.086100
      7 C13        -13.6200     5.0170     0.6450 c3         1 PJZ      -0.045200
      8 C14        -12.5170     4.0910     1.1110 c2         1 PJZ      -0.196200
      9 C15        -11.3670     3.8470     0.4470 ce         1 PJZ      -0.193000
     10 C16        -10.3300     2.9360     0.9410 ce         1 PJZ      -0.163000
     11 C17         -9.1620     2.6790     0.2940 cf         1 PJZ      -0.182000
     12 C18         -8.1320     1.7720     0.7810 cf         1 PJZ      -0.167000
     13 C19         -6.9610     1.5200     0.1380 ce         1 PJZ      -0.178000
     14 C20         -5.9270     0.6040     0.6290 ce         1 PJZ      -0.170000
     15 C21         -4.7540     0.3530    -0.0110 cf         1 PJZ      -0.175000
     16 C22         -3.7300    -0.5600     0.4760 cf         1 PJZ      -0.178000
     17 C23         -2.5690    -0.8000    -0.1730 c2         1 PJZ      -0.213200
     18 C24         -1.4840    -1.7460     0.2950 c3         1 PJZ      -0.034200
     19 C25         -1.8120    -3.2160    -0.0460 c3         1 PJZ      -0.135400
     20 C26         -0.7070    -4.1580     0.4320 c          1 PJZ       0.591100
     21 O28         -0.6460    -4.6140     1.5670 o          1 PJZ      -0.490000
     22 C35         12.3340     6.3460     2.2530 c3         1 PJZ      -0.088100
     23 C36         11.8210     4.8960     2.3430 c3         1 PJZ      -0.074400
     24 C37         10.7620     4.5610     1.2700 c3         1 PJZ      -0.075400
     25 C38         10.2430     3.1090     1.3660 c3         1 PJZ      -0.074400
     26 C39          9.1860     2.7730     0.2910 c3         1 PJZ      -0.074400
     27 C40          8.6630     1.3230     0.3920 c3         1 PJZ      -0.074400
     28 C41          7.6100     0.9820    -0.6850 c3         1 PJZ      -0.074400
     29 C42          7.0870    -0.4680    -0.5790 c3         1 PJZ      -0.074400
     30 C43          6.0360    -0.8140    -1.6560 c3         1 PJZ      -0.076400
     31 C44          5.5180    -2.2650    -1.5460 c3         1 PJZ      -0.068400
     32 C45          4.4680    -2.6180    -2.6260 c3         1 PJZ      -0.138400
     33 C46          3.9860    -4.0630    -2.4770 c          1 PJZ       0.595100
     34 O47          4.5680    -5.0230    -2.9610 o          1 PJZ      -0.490000
     35 H1           2.1740    -6.0520    -3.5990 hc         1 PJZ       0.052033
     36 H2           0.8990    -6.7650    -2.6000 hc         1 PJZ       0.052033
     37 H3           0.7820    -5.0660    -3.1050 hc         1 PJZ       0.052033
     38 H4           2.9870    -6.1850    -1.2560 h1         1 PJZ       0.070700
     39 H5           0.9330    -6.2990     0.0170 h1         1 PJZ       0.059700
     40 H6           1.8910    -4.9180     0.5930 h1         1 PJZ       0.059700
     41 H7         -14.0250     4.0090    -1.2480 hc         1 PJZ       0.034367
     42 H8         -15.0460     3.4570     0.1010 hc         1 PJZ       0.034367
     43 H9         -15.3600     5.0290    -0.6680 hc         1 PJZ       0.034367
     44 H10        -13.1900     5.9120     0.1770 hc         1 PJZ       0.045700
     45 H11        -14.2020     5.3680     1.5060 hc         1 PJZ       0.045700
     46 H12        -12.7170     3.6020     2.0670 ha         1 PJZ       0.167000
     47 H13        -11.1760     4.3390    -0.5090 ha         1 PJZ       0.171000
     48 H14        -10.5230     2.4360     1.8930 ha         1 PJZ       0.169000
     49 H15         -8.9740     3.1810    -0.6580 ha         1 PJZ       0.172000
     50 H16         -8.3250     1.2640     1.7290 ha         1 PJZ       0.170000
     51 H17         -6.7640     2.0260    -0.8110 ha         1 PJZ       0.172000
     52 H18         -6.1280     0.0940     1.5740 ha         1 PJZ       0.171000
     53 H19         -4.5570     0.8650    -0.9560 ha         1 PJZ       0.171000
     54 H20         -3.9290    -1.0750     1.4190 ha         1 PJZ       0.171000
     55 H21         -2.3590    -0.2920    -1.1180 ha         1 PJZ       0.170000
     56 H22         -0.5260    -1.4740    -0.1680 hc         1 PJZ       0.061200
     57 H23         -1.3420    -1.6490     1.3790 hc         1 PJZ       0.061200
     58 H24         -2.7560    -3.4940     0.4350 hc         1 PJZ       0.074700
     59 H25         -1.8970    -3.2870    -1.1370 hc         1 PJZ       0.074700
     60 H26         11.5110     7.0580     2.3860 hc         1 PJZ       0.031367
     61 H27         13.0820     6.5360     3.0330 hc         1 PJZ       0.031367
     62 H28         12.8010     6.5330     1.2780 hc         1 PJZ       0.031367
     63 H29         12.6710     4.2090     2.2420 hc         1 PJZ       0.036700
     64 H30          9.9160     5.2530     1.3710 hc         1 PJZ       0.036700
     65 H31         11.0890     2.4170     1.2670 hc         1 PJZ       0.037200
     66 H32          8.3420     3.4670     0.3860 hc         1 PJZ       0.036700
     67 H33          9.5080     0.6280     0.3020 hc         1 PJZ       0.037700
     68 H34          6.7660     1.6770    -0.5970 hc         1 PJZ       0.037200
     69 H35          7.9330    -1.1620    -0.6650 hc         1 PJZ       0.040200
     70 H36          5.1890    -0.1210    -1.5700 hc         1 PJZ       0.037200
     71 H37          6.3650    -2.9570    -1.6280 hc         1 PJZ       0.054200
     72 H38          5.0770    -2.4170    -0.5520 hc         1 PJZ       0.054200
     73 H39          3.6160    -1.9410    -2.4930 hc         1 PJZ       0.071700
     74 H40          4.9150    -2.4890    -3.6190 hc         1 PJZ       0.071700
     75 H41         11.3930     4.7300     3.3410 hc         1 PJZ       0.036700
     76 H42         11.1940     4.7250     0.2750 hc         1 PJZ       0.036700
     77 H43          9.8100     2.9460     2.3600 hc         1 PJZ       0.037200
     78 H44          9.6210     2.9310    -0.7040 hc         1 PJZ       0.036700
     79 H45          8.2250     1.1670     1.3860 hc         1 PJZ       0.037700
     80 H46          8.0490     1.1340    -1.6790 hc         1 PJZ       0.037200
     81 H47          6.6480    -0.6200     0.4150 hc         1 PJZ       0.040200
     82 H48          6.4750    -0.6620    -2.6500 hc         1 PJZ       0.037200
@<TRIPOS>BOND
     1     1     2 1   
     2     1    35 1   
     3     1    36 1   
     4     1    37 1   
     5     2     3 1   
     6     2     4 1   
     7     2    38 1   
     8     3    33 1   
     9     4     5 1   
    10     4    39 1   
    11     4    40 1   
    12     5    20 1   
    13     6     7 1   
    14     6    41 1   
    15     6    42 1   
    16     6    43 1   
    17     7     8 1   
    18     7    44 1   
    19     7    45 1   
    20     8     9 2   
    21     8    46 1   
    22     9    10 1   
    23     9    47 1   
    24    10    11 2   
    25    10    48 1   
    26    11    12 1   
    27    11    49 1   
    28    12    13 2   
    29    12    50 1   
    30    13    14 1   
    31    13    51 1   
    32    14    15 2   
    33    14    52 1   
    34    15    16 1   
    35    15    53 1   
    36    16    17 2   
    37    16    54 1   
    38    17    18 1   
    39    17    55 1   
    40    18    19 1   
    41    18    56 1   
    42    18    57 1   
    43    19    20 1   
    44    19    58 1   
    45    19    59 1   
    46    20    21 2   
    47    22    23 1   
    48    22    60 1   
    49    22    61 1   
    50    22    62 1   
    51    23    24 1   
    52    23    63 1   
    53    23    75 1   
    54    24    25 1   
    55    24    64 1   
    56    24    76 1   
    57    25    26 1   
    58    25    65 1   
    59    25    77 1   
    60    26    27 1   
    61    26    66 1   
    62    26    78 1   
    63    27    28 1   
    64    27    67 1   
    65    27    79 1   
    66    28    29 1   
    67    28    68 1   
    68    28    80 1   
    69    29    30 1   
    70    29    69 1   
    71    29    81 1   
    72    30    31 1   
    73    30    70 1   
    74    30    82 1   
    75    31    32 1   
    76    31    71 1   
    77    31    72 1   
    78    32    33 1   
    79    32    73 1   
    80    32    74 1   
    81    33    34 2   
@<TRIPOS>SUBSTRUCTURE
     1 PJZ         1 TEMP              0 ****  ****    0 ROOT
