@<TRIPOS>MOLECULE
PJZ
   82    81     1     0     0
SMALL
bcc


@<TRIPOS>ATOM
      1 C1           1.0950    -4.2150    -2.3450 c3         1 PJZ      -0.110100
      2 C2           1.8010    -4.2970    -1.0040 c3         1 PJZ       0.154100
      3 O2           2.5310    -3.0870    -0.7410 os         1 PJZ      -0.425900
      4 C3           0.8710    -4.5060     0.1680 c3         1 PJZ       0.140400
      5 O3          -0.0890    -3.4510     0.1890 os         1 PJZ      -0.414900
      6 C12        -15.2010     4.4020    -2.2550 c3         1 PJZ      -0.086100
      7 C13        -14.8100     4.1380    -0.8010 c3         1 PJZ      -0.045200
      8 C14        -13.8550     2.9980    -0.6710 c2         1 PJZ      -0.146200
      9 C15        -12.5940     3.0960    -0.2320 ce         1 PJZ      -0.143000
     10 C16        -11.6920     1.9730    -0.1250 ce         1 PJZ      -0.113000
     11 C17        -10.4190     2.0630     0.3090 cf         1 PJZ      -0.132000
     12 C18         -9.5350     0.9350     0.4240 cf         1 PJZ      -0.117000
     13 C19         -8.2580     1.0150     0.8530 ce         1 PJZ      -0.128000
     14 C20         -7.3860    -0.1220     0.9760 ce         1 PJZ      -0.120000
     15 C21         -6.1080    -0.0530     1.3980 cf         1 PJZ      -0.125000
     16 C22         -5.2460    -1.2060     1.5260 cf         1 PJZ      -0.128000
     17 C23         -3.9720    -1.1510     1.9310 c2         1 PJZ      -0.163200
     18 C24         -3.0790    -2.3420     2.0590 c3         1 PJZ      -0.034200
     19 C25         -1.9630    -2.3130     1.0200 c3         1 PJZ      -0.135400
     20 C26         -1.0210    -3.4810     1.1350 c          1 PJZ       0.640100
     21 O28         -1.0850    -4.3460     1.9720 o          1 PJZ      -0.539000
     22 C35         14.7660     5.4220     0.9100 c3         1 PJZ      -0.088100
     23 C36         14.2140     4.0950     0.4080 c3         1 PJZ      -0.074400
     24 C37         12.6970     4.0060     0.5160 c3         1 PJZ      -0.075400
     25 C38         12.1310     2.6810     0.0210 c3         1 PJZ      -0.074400
     26 C39         10.6130     2.6020     0.1210 c3         1 PJZ      -0.074400
     27 C40         10.0440     1.2750    -0.3680 c3         1 PJZ      -0.074400
     28 C41          8.5270     1.1950    -0.2530 c3         1 PJZ      -0.074400
     29 C42          7.9550    -0.1350    -0.7290 c3         1 PJZ      -0.074400
     30 C43          6.4420    -0.2220    -0.5790 c3         1 PJZ      -0.076400
     31 C44          5.8760    -1.5620    -1.0320 c3         1 PJZ      -0.068400
     32 C45          4.3730    -1.6420    -0.8140 c3         1 PJZ      -0.138400
     33 C46          3.7740    -2.9660    -1.2020 c          1 PJZ       0.644100
     34 O47          4.3310    -3.8160    -1.8500 o          1 PJZ      -0.539000
     35 H1           1.8150    -4.1570    -3.1610 hc         1 PJZ       0.052033
     36 H2           0.4940    -5.1120    -2.4990 hc         1 PJZ       0.052033
     37 H3           0.4360    -3.3500    -2.4050 hc         1 PJZ       0.052033
     38 H4           2.4890    -5.1460    -1.0030 h1         1 PJZ       0.070700
     39 H5           0.3760    -5.4730     0.0530 h1         1 PJZ       0.059700
     40 H6           1.4380    -4.5270     1.1020 h1         1 PJZ       0.059700
     41 H7         -14.3340     4.7020    -2.8450 hc         1 PJZ       0.034367
     42 H8         -15.6270     3.5110    -2.7200 hc         1 PJZ       0.034367
     43 H9         -15.9430     5.1970    -2.3210 hc         1 PJZ       0.034367
     44 H10        -14.3790     5.0410    -0.3620 hc         1 PJZ       0.045700
     45 H11        -15.7160     3.9120    -0.2280 hc         1 PJZ       0.045700
     46 H12        -14.2270     2.0220    -0.9780 ha         1 PJZ       0.117000
     47 H13        -12.2110     4.0680     0.0690 ha         1 PJZ       0.121000
     48 H14        -12.0810     0.9990    -0.4130 ha         1 PJZ       0.119000
     49 H15        -10.0260     3.0350     0.5950 ha         1 PJZ       0.122000
     50 H16         -9.9350    -0.0370     0.1480 ha         1 PJZ       0.120000
     51 H17         -7.8530     1.9860     1.1280 ha         1 PJZ       0.122000
     52 H18         -7.8000    -1.0920     0.7100 ha         1 PJZ       0.121000
     53 H19         -5.6890     0.9140     1.6630 ha         1 PJZ       0.121000
     54 H20         -5.6780    -2.1720     1.2740 ha         1 PJZ       0.121000
     55 H21         -3.5370    -0.1850     2.1770 ha         1 PJZ       0.120000
     56 H22         -2.6400    -2.3610     3.0600 hc         1 PJZ       0.061200
     57 H23         -3.6660    -3.2560     1.9500 hc         1 PJZ       0.061200
     58 H24         -2.3830    -2.3040     0.0100 hc         1 PJZ       0.074700
     59 H25         -1.3770    -1.3920     1.1040 hc         1 PJZ       0.074700
     60 H26         14.5290     5.5740     1.9650 hc         1 PJZ       0.031367
     61 H27         15.8500     5.4730     0.8050 hc         1 PJZ       0.031367
     62 H28         14.3400     6.2610     0.3540 hc         1 PJZ       0.031367
     63 H29         14.5120     3.9450    -0.6350 hc         1 PJZ       0.036700
     64 H30         12.4000     4.1600     1.5600 hc         1 PJZ       0.036700
     65 H31         12.4360     2.5230    -1.0200 hc         1 PJZ       0.037200
     66 H32         10.3100     2.7630     1.1620 hc         1 PJZ       0.036700
     67 H33         10.3390     1.1160    -1.4110 hc         1 PJZ       0.037700
     68 H34          8.2350     1.3600     0.7900 hc         1 PJZ       0.037200
     69 H35          8.2290    -0.2960    -1.7780 hc         1 PJZ       0.040200
     70 H36          6.1740    -0.0510     0.4690 hc         1 PJZ       0.037200
     71 H37          6.1100    -1.7210    -2.0880 hc         1 PJZ       0.054200
     72 H38          6.3710    -2.3660    -0.4810 hc         1 PJZ       0.054200
     73 H39          4.1250    -1.4370     0.2310 hc         1 PJZ       0.071700
     74 H40          3.8630    -0.8640    -1.3940 hc         1 PJZ       0.071700
     75 H41         14.6660     3.2730     0.9720 hc         1 PJZ       0.036700
     76 H42         12.2450     4.8290    -0.0490 hc         1 PJZ       0.036700
     77 H43         12.5760     1.8600     0.5940 hc         1 PJZ       0.037200
     78 H44         10.1680     3.4220    -0.4530 hc         1 PJZ       0.036700
     79 H45         10.4950     0.4550     0.2020 hc         1 PJZ       0.037700
     80 H46          8.0750     2.0120    -0.8260 hc         1 PJZ       0.037200
     81 H47          8.4210    -0.9510    -0.1660 hc         1 PJZ       0.040200
     82 H48          5.9710     0.5880    -1.1480 hc         1 PJZ       0.037200
@<TRIPOS>BOND
     1     1     2 1   
     2     1    35 1   
     3     1    36 1   
     4     1    37 1   
     5     2     3 1   
     6     2     4 1   
     7     2    38 1   
     8     3    33 1   
     9     4     5 1   
    10     4    39 1   
    11     4    40 1   
    12     5    20 1   
    13     6     7 1   
    14     6    41 1   
    15     6    42 1   
    16     6    43 1   
    17     7     8 1   
    18     7    44 1   
    19     7    45 1   
    20     8     9 2   
    21     8    46 1   
    22     9    10 1   
    23     9    47 1   
    24    10    11 2   
    25    10    48 1   
    26    11    12 1   
    27    11    49 1   
    28    12    13 2   
    29    12    50 1   
    30    13    14 1   
    31    13    51 1   
    32    14    15 2   
    33    14    52 1   
    34    15    16 1   
    35    15    53 1   
    36    16    17 2   
    37    16    54 1   
    38    17    18 1   
    39    17    55 1   
    40    18    19 1   
    41    18    56 1   
    42    18    57 1   
    43    19    20 1   
    44    19    58 1   
    45    19    59 1   
    46    20    21 2   
    47    22    23 1   
    48    22    60 1   
    49    22    61 1   
    50    22    62 1   
    51    23    24 1   
    52    23    63 1   
    53    23    75 1   
    54    24    25 1   
    55    24    64 1   
    56    24    76 1   
    57    25    26 1   
    58    25    65 1   
    59    25    77 1   
    60    26    27 1   
    61    26    66 1   
    62    26    78 1   
    63    27    28 1   
    64    27    67 1   
    65    27    79 1   
    66    28    29 1   
    67    28    68 1   
    68    28    80 1   
    69    29    30 1   
    70    29    69 1   
    71    29    81 1   
    72    30    31 1   
    73    30    70 1   
    74    30    82 1   
    75    31    32 1   
    76    31    71 1   
    77    31    72 1   
    78    32    33 1   
    79    32    73 1   
    80    32    74 1   
    81    33    34 2   
@<TRIPOS>SUBSTRUCTURE
     1 PJZ         1 TEMP              0 ****  ****    0 ROOT
