@<TRIPOS>MOLECULE
PK0
   42    44     1     0     0
SMALL
bcc


@<TRIPOS>ATOM
      1 N4           2.1660     1.8240     0.7440 n          1 PK0      -0.483800
      2 C31          2.6200     0.2690     2.5910 c3         1 PK0      -0.096100
      3 C4           3.1640     2.8390     0.9780 c3         1 PK0       0.105300
      4 O2           0.6920    -1.3270     0.8470 o          1 PK0      -0.549500
      5 C2           1.0140    -0.1730     0.7460 c          1 PK0       0.709500
      6 O5           0.4310     3.1450     0.0020 o          1 PK0      -0.607500
      7 C5           0.9220     2.0860     0.3150 c          1 PK0       0.830500
      8 C3           2.3720     0.4300     1.0920 c5         1 PK0       0.103700
      9 C1B          3.4300    -0.2160     0.2130 ca         1 PK0      -0.142300
     10 C2B          4.2430    -1.2450     0.6780 ca         1 PK0      -0.063000
     11 C3B          5.1730    -1.8570    -0.1450 ca         1 PK0      -0.196500
     12 C4B          5.3080    -1.4490    -1.4700 ca         1 PK0       0.157100
     13 C5B          4.4970    -0.4230    -1.9500 ca         1 PK0      -0.196500
     14 C6B          3.5700     0.1780    -1.1150 ca         1 PK0      -0.063000
     15 O4           6.2280    -2.0690    -2.2300 oh         1 PK0      -0.488100
     16 N1           0.2310     0.8550     0.2880 n          1 PK0      -0.453600
     17 C1A         -1.0970     0.7220    -0.1540 ca         1 PK0       0.080600
     18 C2A         -1.4610     1.1940    -1.4050 ca         1 PK0      -0.095000
     19 C3A         -2.7690     1.0530    -1.8340 ca         1 PK0      -0.089000
     20 C4A         -3.7070     0.4270    -1.0210 ca         1 PK0       0.034000
     21 C5A         -3.3330    -0.0530     0.2390 ca         1 PK0      -0.157300
     22 C6A         -2.0300     0.1010     0.6710 ca         1 PK0      -0.079000
     23 C41         -5.0410     0.2910    -1.5120 cg         1 PK0       0.218800
     24 N41         -6.1060     0.1990    -1.9380 n1         1 PK0      -0.325800
     25 C51         -4.3550    -0.7210     1.1130 c3         1 PK0       0.726200
     26 F1          -4.8520    -1.8130     0.5230 f          1 PK0      -0.226967
     27 F2          -3.8530    -1.0930     2.2880 f          1 PK0      -0.226967
     28 F3          -5.3870     0.0940     1.3580 f          1 PK0      -0.226967
     29 H1           1.8600     0.8080     3.1560 hc         1 PK0       0.057700
     30 H2           2.5790    -0.7770     2.8880 hc         1 PK0       0.057700
     31 H3           3.5980     0.6630     2.8630 hc         1 PK0       0.057700
     32 H4           4.1300     2.4960     0.6100 h1         1 PK0       0.051367
     33 H5           2.8940     3.7430     0.4400 h1         1 PK0       0.051367
     34 H6           3.2560     3.0780     2.0380 h1         1 PK0       0.051367
     35 H7           4.1680    -1.5890     1.7010 ha         1 PK0       0.137500
     36 H8           5.7980    -2.6530     0.2390 ha         1 PK0       0.144000
     37 H9           4.5870    -0.0890    -2.9770 ha         1 PK0       0.144000
     38 H10          2.9610     0.9760    -1.5210 ha         1 PK0       0.137500
     39 H11          6.2250    -1.7090    -3.1240 ho         1 PK0       0.430000
     40 H12         -0.7340     1.6590    -2.0550 ha         1 PK0       0.157000
     41 H13         -3.0590     1.4180    -2.8090 ha         1 PK0       0.155000
     42 H14         -1.7300    -0.2440     1.6500 ha         1 PK0       0.167000
@<TRIPOS>BOND
     1     1     3 1   
     2     1     7 1   
     3     1     8 1   
     4     2     8 1   
     5     2    29 1   
     6     2    30 1   
     7     2    31 1   
     8     3    32 1   
     9     3    33 1   
    10     3    34 1   
    11     4     5 2   
    12     5     8 1   
    13     5    16 1   
    14     6     7 2   
    15     7    16 1   
    16     8     9 1   
    17     9    10 ar  
    18     9    14 ar  
    19    10    11 ar  
    20    10    35 1   
    21    11    12 ar  
    22    11    36 1   
    23    12    13 ar  
    24    12    15 1   
    25    13    14 ar  
    26    13    37 1   
    27    14    38 1   
    28    15    39 1   
    29    16    17 1   
    30    17    18 ar  
    31    17    22 ar  
    32    18    19 ar  
    33    18    40 1   
    34    19    20 ar  
    35    19    41 1   
    36    20    21 ar  
    37    20    23 1   
    38    21    22 ar  
    39    21    25 1   
    40    22    42 1   
    41    23    24 3   
    42    25    26 1   
    43    25    27 1   
    44    25    28 1   
@<TRIPOS>SUBSTRUCTURE
     1 PK0         1 TEMP              0 ****  ****    0 ROOT
