@<TRIPOS>MOLECULE
PK0
   42    44     1     0     0
SMALL
No Charge or Current Charge


@<TRIPOS>ATOM
      1 N4           2.2470     1.7130     0.8170 n          1 PK0      -0.416800
      2 C31          2.5880     0.1200     2.7060 c3         1 PK0      -0.096100
      3 C4           3.2990     2.7420     0.9330 c3         1 PK0       0.105300
      4 O2           0.5330    -1.4370     0.8830 o          1 PK0      -0.474000
      5 C2           0.9450    -0.2850     0.8110 c          1 PK0       0.567000
      6 O5           0.5960     3.1030    -0.0240 o          1 PK0      -0.532000
      7 C5           0.9790     1.9970     0.3300 c          1 PK0       0.621000
      8 C3           2.3550     0.2880     1.1810 c5         1 PK0       0.103700
      9 C1B          3.4550    -0.2870     0.2580 ca         1 PK0      -0.142300
     10 C2B          4.6390    -0.8730     0.7690 ca         1 PK0      -0.045000
     11 C3B          5.6190    -1.3860    -0.0990 ca         1 PK0      -0.178500
     12 C4B          5.4380    -1.3250    -1.4850 ca         1 PK0       0.157100
     13 C5B          4.2740    -0.7490    -2.0100 ca         1 PK0      -0.178500
     14 C6B          3.2910    -0.2350    -1.1470 ca         1 PK0      -0.045000
     15 O4           6.3960    -1.8260    -2.3140 oh         1 PK0      -0.527100
     16 N1           0.2330     0.8220     0.3260 n          1 PK0      -0.227000
     17 C1A         -1.1300     0.7460    -0.1380 ca         1 PK0      -0.012000
     18 C2A         -1.5040     1.3550    -1.3480 ca         1 PK0      -0.077000
     19 C3A         -2.8290     1.2770    -1.8010 ca         1 PK0      -0.071000
     20 C4A         -3.8060     0.5910    -1.0540 ca         1 PK0       0.034000
     21 C5A         -3.4480    -0.0330     0.1740 ca         1 PK0      -0.157300
     22 C6A         -2.1040     0.0570     0.6140 ca         1 PK0      -0.061000
     23 C41         -5.1490     0.5490    -1.5780 cg         1 PK0       0.308000
     24 N41         -6.2330     0.5230    -2.0110 n1         1 PK0      -0.415000
     25 C51         -4.4870    -0.7930     1.0250 c3         1 PK0       0.362300
     26 F1          -5.0340    -1.8260     0.3440 f          1 PK0      -0.105667
     27 F2          -3.9660    -1.3200     2.1570 f          1 PK0      -0.105667
     28 F3          -5.5030     0.0110     1.4130 f          1 PK0      -0.105667
     29 H1           1.7690     0.5700     3.2790 hc         1 PK0       0.057700
     30 H2           2.6430    -0.9390     2.9850 hc         1 PK0       0.057700
     31 H3           3.5150     0.6070     3.0290 hc         1 PK0       0.057700
     32 H4           4.2380     2.2860     1.2710 h1         1 PK0       0.051367
     33 H5           3.4650     3.2140    -0.0440 h1         1 PK0       0.051367
     34 H6           2.9910     3.5070     1.6570 h1         1 PK0       0.051367
     35 H7           4.8190    -0.9390     1.8380 ha         1 PK0       0.119500
     36 H8           6.5220    -1.8320     0.3090 ha         1 PK0       0.126000
     37 H9           4.1210    -0.6950    -3.0860 ha         1 PK0       0.126000
     38 H10          2.3980     0.2100    -1.5810 ha         1 PK0       0.119500
     39 H11          6.1010    -1.6980    -3.2410 ho         1 PK0       0.469000
     40 H12         -0.7680     1.8830    -1.9510 ha         1 PK0       0.139000
     41 H13         -3.0970     1.7540    -2.7420 ha         1 PK0       0.137000
     42 H14         -1.8070    -0.4000     1.5550 ha         1 PK0       0.149000
@<TRIPOS>BOND
     1     1     3 1   
     2     1     7 1   
     3     1     8 1   
     4     2     8 1   
     5     2    29 1   
     6     2    30 1   
     7     2    31 1   
     8     3    32 1   
     9     3    33 1   
    10     3    34 1   
    11     4     5 2   
    12     5     8 1   
    13     5    16 1   
    14     6     7 2   
    15     7    16 1   
    16     8     9 1   
    17     9    10 ar  
    18     9    14 ar  
    19    10    11 ar  
    20    10    35 1   
    21    11    12 ar  
    22    11    36 1   
    23    12    13 ar  
    24    12    15 1   
    25    13    14 ar  
    26    13    37 1   
    27    14    38 1   
    28    15    39 1   
    29    16    17 1   
    30    17    18 ar  
    31    17    22 ar  
    32    18    19 ar  
    33    18    40 1   
    34    19    20 ar  
    35    19    41 1   
    36    20    21 ar  
    37    20    23 1   
    38    21    22 ar  
    39    21    25 1   
    40    22    42 1   
    41    23    24 3   
    42    25    26 1   
    43    25    27 1   
    44    25    28 1   
@<TRIPOS>SUBSTRUCTURE
     1 PK0         1 TEMP              0 ****  ****    0 ROOT
