@<TRIPOS>MOLECULE
PK1
   38    40     1     0     0
SMALL
bcc


@<TRIPOS>ATOM
      1 N4           1.6370     1.7900    -0.0480 n          1 PK1      -0.406800
      2 C31          2.3030     1.4600     2.2980 c3         1 PK1      -0.090100
      3 C4           2.4870     2.8600    -0.5130 c3         1 PK1       0.102300
      4 O2           0.6850    -1.0490     1.7210 o          1 PK1      -0.540500
      5 C2           0.8400    -0.0850     1.0200 c          1 PK1       0.700500
      6 S5          -0.4080     2.4280    -1.6500 s          1 PK1      -0.540400
      7 C5           0.4110     1.5640    -0.5090 cs         1 PK1       0.572400
      8 C3           2.0710     0.8080     0.9370 c5         1 PK1       0.082700
      9 C1B          3.2440    -0.0040     0.4170 ca         1 PK1      -0.146300
     10 C2B          4.2570    -0.4530     1.2540 ca         1 PK1      -0.064500
     11 C3B          5.3010    -1.2250     0.7680 ca         1 PK1      -0.195500
     12 C4B          5.3480    -1.5680    -0.5800 ca         1 PK1       0.158100
     13 C5B          4.3350    -1.1280    -1.4310 ca         1 PK1      -0.195500
     14 C6B          3.3010    -0.3580    -0.9310 ca         1 PK1      -0.064500
     15 O4           6.3350    -2.3100    -1.1110 oh         1 PK1      -0.487100
     16 N1          -0.0770     0.4320     0.1370 n          1 PK1      -0.398600
     17 C1A         -1.3650    -0.1190    -0.0590 ca         1 PK1       0.062600
     18 C2A         -1.4980    -1.3540    -0.6710 ca         1 PK1      -0.097000
     19 C3A         -2.7590    -1.9050    -0.8280 ca         1 PK1      -0.110000
     20 C4A         -3.8780    -1.2200    -0.3820 ca         1 PK1       0.034400
     21 C5A         -3.7350     0.0230     0.2290 ca         1 PK1       0.029400
     22 C6A         -2.4750     0.5720     0.3970 ca         1 PK1      -0.087000
     23 CL1         -5.1100     0.8870     0.7930 cl         1 PK1      -0.070400
     24 CL2         -5.4360    -1.9170    -0.5880 cl         1 PK1      -0.073400
     25 H1           1.4410     2.0640     2.5780 hc         1 PK1       0.059367
     26 H2           2.4500     0.7040     3.0670 hc         1 PK1       0.059367
     27 H3           3.1840     2.1000     2.2770 hc         1 PK1       0.059367
     28 H4           2.8140     2.6890    -1.5390 h1         1 PK1       0.059700
     29 H5           1.9590     3.8100    -0.4680 h1         1 PK1       0.059700
     30 H6           3.3630     2.9130     0.1270 h1         1 PK1       0.059700
     31 H7           4.2570    -0.2050     2.3070 ha         1 PK1       0.139000
     32 H8           6.0800    -1.5580     1.4450 ha         1 PK1       0.145500
     33 H9           4.3620    -1.3860    -2.4820 ha         1 PK1       0.145500
     34 H10          2.5350    -0.0260    -1.6230 ha         1 PK1       0.139000
     35 H11          6.9820    -2.5440    -0.4360 ho         1 PK1       0.430000
     36 H12         -0.6290    -1.8860    -1.0340 ha         1 PK1       0.151000
     37 H13         -2.8730    -2.8690    -1.3050 ha         1 PK1       0.155000
     38 H14         -2.3630     1.5320     0.8810 ha         1 PK1       0.163000
@<TRIPOS>BOND
     1     1     3 1   
     2     1     7 1   
     3     1     8 1   
     4     2     8 1   
     5     2    25 1   
     6     2    26 1   
     7     2    27 1   
     8     3    28 1   
     9     3    29 1   
    10     3    30 1   
    11     4     5 2   
    12     5     8 1   
    13     5    16 1   
    14     6     7 2   
    15     7    16 1   
    16     8     9 1   
    17     9    10 ar  
    18     9    14 ar  
    19    10    11 ar  
    20    10    31 1   
    21    11    12 ar  
    22    11    32 1   
    23    12    13 ar  
    24    12    15 1   
    25    13    14 ar  
    26    13    33 1   
    27    14    34 1   
    28    15    35 1   
    29    16    17 1   
    30    17    18 ar  
    31    17    22 ar  
    32    18    19 ar  
    33    18    36 1   
    34    19    20 ar  
    35    19    37 1   
    36    20    21 ar  
    37    20    24 1   
    38    21    22 ar  
    39    21    23 1   
    40    22    38 1   
@<TRIPOS>SUBSTRUCTURE
     1 PK1         1 TEMP              0 ****  ****    0 ROOT
