@<TRIPOS>MOLECULE
PK1
   38    40     1     0     0
SMALL
No Charge or Current Charge


@<TRIPOS>ATOM
      1 N4           1.6740     1.7040     0.1390 n          1 PK1      -0.339800
      2 C31          2.3030     1.2640     2.5140 c3         1 PK1      -0.090100
      3 C4           2.5730     2.7970    -0.2900 c3         1 PK1       0.102300
      4 O2           0.5760    -1.2300     1.7660 o          1 PK1      -0.465000
      5 C2           0.7970    -0.2090     1.1240 c          1 PK1       0.558000
      6 S5          -0.3260     2.5430    -1.5160 s          1 PK1      -0.540400
      7 C5           0.4020     1.5670    -0.3610 cs         1 PK1       0.438400
      8 C3           2.0620     0.6700     1.1000 c5         1 PK1       0.082700
      9 C1B          3.2550    -0.0790     0.4590 ca         1 PK1      -0.146300
     10 C2B          4.5140    -0.1800     1.0990 ca         1 PK1      -0.046500
     11 C3B          5.5790    -0.8680     0.4910 ca         1 PK1      -0.177500
     12 C4B          5.4060    -1.4670    -0.7640 ca         1 PK1       0.158100
     13 C5B          4.1700    -1.3780    -1.4120 ca         1 PK1      -0.177500
     14 C6B          3.1030    -0.6920    -0.8090 ca         1 PK1      -0.046500
     15 O4           6.4340    -2.1350    -1.3580 oh         1 PK1      -0.526100
     16 N1          -0.0960     0.4180     0.2340 n          1 PK1      -0.172000
     17 C1A         -1.4110    -0.0980    -0.0460 ca         1 PK1      -0.030000
     18 C2A         -1.5770    -1.4470    -0.4220 ca         1 PK1      -0.079000
     19 C3A         -2.8600    -1.9560    -0.6910 ca         1 PK1      -0.092000
     20 C4A         -3.9870    -1.1250    -0.5830 ca         1 PK1       0.126000
     21 C5A         -3.8290     0.2230    -0.2000 ca         1 PK1       0.121000
     22 C6A         -2.5470     0.7300     0.0690 ca         1 PK1      -0.069000
     23 Cl1         -5.2230     1.2940    -0.0450 cl         1 PK1      -0.162000
     24 Cl2         -5.5830    -1.7950    -0.9270 cl         1 PK1      -0.165000
     25 H1           1.4120     1.7910     2.8750 hc         1 PK1       0.059367
     26 H2           2.5370     0.4770     3.2410 hc         1 PK1       0.059367
     27 H3           3.1290     1.9850     2.5160 hc         1 PK1       0.059367
     28 H4           2.7220     2.7490    -1.3760 h1         1 PK1       0.059700
     29 H5           2.1290     3.7660    -0.0290 h1         1 PK1       0.059700
     30 H6           3.5480     2.7070     0.2050 h1         1 PK1       0.059700
     31 H7           4.6870     0.2700     2.0730 ha         1 PK1       0.121000
     32 H8           6.5350    -0.9310     1.0050 ha         1 PK1       0.127500
     33 H9           4.0350    -1.8410    -2.3860 ha         1 PK1       0.127500
     34 H10          2.1540    -0.6360    -1.3380 ha         1 PK1       0.121000
     35 H11          7.2150    -2.0940    -0.7650 ho         1 PK1       0.469000
     36 H12         -0.7130    -2.1010    -0.5170 ha         1 PK1       0.133000
     37 H13         -2.9810    -2.9960    -0.9860 ha         1 PK1       0.137000
     38 H14         -2.4410     1.7680     0.3740 ha         1 PK1       0.145000
@<TRIPOS>BOND
     1     1     3 1   
     2     1     7 1   
     3     1     8 1   
     4     2     8 1   
     5     2    25 1   
     6     2    26 1   
     7     2    27 1   
     8     3    28 1   
     9     3    29 1   
    10     3    30 1   
    11     4     5 2   
    12     5     8 1   
    13     5    16 1   
    14     6     7 2   
    15     7    16 1   
    16     8     9 1   
    17     9    10 ar  
    18     9    14 ar  
    19    10    11 ar  
    20    10    31 1   
    21    11    12 ar  
    22    11    32 1   
    23    12    13 ar  
    24    12    15 1   
    25    13    14 ar  
    26    13    33 1   
    27    14    34 1   
    28    15    35 1   
    29    16    17 1   
    30    17    18 ar  
    31    17    22 ar  
    32    18    19 ar  
    33    18    36 1   
    34    19    20 ar  
    35    19    37 1   
    36    20    21 ar  
    37    20    24 1   
    38    21    22 ar  
    39    21    23 1   
    40    22    38 1   
@<TRIPOS>SUBSTRUCTURE
     1 PK1         1 TEMP              0 ****  ****    0 ROOT
