@<TRIPOS>MOLECULE
PK2
   54    57     1     0     0
SMALL
abcg2


@<TRIPOS>ATOM
      1 C2          -3.5200     2.6910     0.5010 c          1 PK2       0.592600
      2 O14         -4.6360     2.9960     0.8980 o          1 PK2      -0.555000
      3 N3          -2.5670     3.6630     0.2910 ns         1 PK2      -0.453400
      4 C4          -1.3020     3.4030    -0.1610 cc         1 PK2       0.704800
      5 N15         -0.4790     4.4710    -0.2710 nv         1 PK2      -1.034200
      6 N5          -0.8810     2.2130    -0.4300 nd         1 PK2      -0.698100
      7 C6          -1.7390     1.1560    -0.2480 ca         1 PK2       0.219400
      8 C10         -1.2620    -0.1360    -0.5420 ca         1 PK2      -0.059300
      9 C18          0.1400    -0.3650    -1.0140 c3         1 PK2      -0.012100
     10 C19          1.1280    -0.4710     0.1440 c3         1 PK2       0.166800
     11 N20          2.4880    -0.5850    -0.3430 n7         1 PK2      -0.867400
     12 C21          3.4740    -0.6750     0.7150 c3         1 PK2       0.165800
     13 C22          4.9000    -0.6460     0.1760 c6         1 PK2      -0.059700
     14 C27          5.9070    -0.8800     1.3020 c6         1 PK2      -0.069900
     15 C26          7.3460    -0.8430     0.7970 c6         1 PK2      -0.073400
     16 C25          7.6460     0.4650     0.0700 c6         1 PK2      -0.074400
     17 C24          6.6490     0.7020    -1.0610 c6         1 PK2      -0.073400
     18 C23          5.2120     0.6620    -0.5500 c6         1 PK2      -0.069900
     19 C9          -2.1390    -1.1950    -0.3510 ca         1 PK2       0.160400
     20 N11         -1.9260    -2.5310    -0.5570 nc         1 PK2      -0.671100
     21 C12         -3.0670    -3.1140    -0.2400 cd         1 PK2       0.687700
     22 N16         -3.2940    -4.4280    -0.3080 nu         1 PK2      -0.914400
     23 C17         -4.5330    -5.0530     0.0850 c3         1 PK2       0.219100
     24 N13         -4.0230    -2.2340     0.1660 na         1 PK2      -0.358600
     25 C8          -3.4610    -0.9750     0.1100 ca         1 PK2      -0.117200
     26 C7          -3.9460     0.2700     0.3960 ca         1 PK2      -0.028000
     27 C1          -3.0650     1.3460     0.2130 ca         1 PK2      -0.229600
     28 HN3         -2.8400     4.6170     0.4890 hn         1 PK2       0.323500
     29 HN15        -0.8750     5.3910    -0.3690 hn         1 PK2       0.487000
     30 HN1A         0.3700     4.3180    -0.7900 hn         1 PK2       0.487000
     31 H18          0.1780    -1.2850    -1.6040 hc         1 PK2       0.061700
     32 H18A         0.4560     0.4510    -1.6660 hc         1 PK2       0.061700
     33 H19          1.0600     0.4340     0.7550 h1         1 PK2       0.033200
     34 H19A         0.8330    -1.3080     0.7970 h1         1 PK2       0.033200
     35 HN20         2.5620    -1.4100    -0.9280 hn         1 PK2       0.403000
     36 H21          3.3320     0.1810     1.3850 h1         1 PK2       0.025700
     37 H21A         3.3420    -1.5730     1.3420 h1         1 PK2       0.025700
     38 H22          5.0100    -1.4720    -0.5430 hc         1 PK2       0.042700
     39 H27          5.7720    -0.1060     2.0670 hc         1 PK2       0.041950
     40 H27A         5.7050    -1.8380     1.7910 hc         1 PK2       0.041950
     41 H26          8.0410    -0.9830     1.6290 hc         1 PK2       0.035950
     42 H26A         7.5090    -1.6810     0.1100 hc         1 PK2       0.035950
     43 H25          7.5870     1.2960     0.7810 hc         1 PK2       0.035700
     44 H25A         8.6680     0.4590    -0.3170 hc         1 PK2       0.035700
     45 H24          6.8480     1.6610    -1.5460 hc         1 PK2       0.035950
     46 H24A         6.7840    -0.0680    -1.8290 hc         1 PK2       0.035950
     47 H23          4.5060     0.8080    -1.3680 hc         1 PK2       0.041950
     48 H23A         5.0570     1.4930     0.1500 hc         1 PK2       0.041950
     49 HN16        -2.5160    -5.0050    -0.5750 hn         1 PK2       0.523000
     50 H17         -5.3760    -4.6930    -0.5090 h1         1 PK2       0.040033
     51 H17A        -4.4440    -6.1220    -0.0830 h1         1 PK2       0.040033
     52 H17B        -4.7600    -4.8960     1.1420 h1         1 PK2       0.040033
     53 HN13        -4.9600    -2.4540     0.4610 hn         1 PK2       0.357000
     54 H7          -4.9560     0.4350     0.7470 ha         1 PK2       0.135000
@<TRIPOS>BOND
     1     1     2 2   
     2     1     3 1   
     3     1    27 1   
     4     3     4 1   
     5     3    28 1   
     6     4     5 1   
     7     4     6 2   
     8     5    29 1   
     9     5    30 1   
    10     6     7 1   
    11     7     8 ar  
    12     7    27 ar  
    13     8     9 1   
    14     8    19 ar  
    15     9    10 1   
    16     9    31 1   
    17     9    32 1   
    18    10    11 1   
    19    10    33 1   
    20    10    34 1   
    21    11    12 1   
    22    11    35 1   
    23    12    13 1   
    24    12    36 1   
    25    12    37 1   
    26    13    14 1   
    27    13    18 1   
    28    13    38 1   
    29    14    15 1   
    30    14    39 1   
    31    14    40 1   
    32    15    16 1   
    33    15    41 1   
    34    15    42 1   
    35    16    17 1   
    36    16    43 1   
    37    16    44 1   
    38    17    18 1   
    39    17    45 1   
    40    17    46 1   
    41    18    47 1   
    42    18    48 1   
    43    19    20 1   
    44    19    25 ar  
    45    20    21 2   
    46    21    22 1   
    47    21    24 1   
    48    22    23 1   
    49    22    49 1   
    50    23    50 1   
    51    23    51 1   
    52    23    52 1   
    53    24    25 1   
    54    24    53 1   
    55    25    26 ar  
    56    26    27 ar  
    57    26    54 1   
@<TRIPOS>SUBSTRUCTURE
     1 PK2         1 TEMP              0 ****  ****    0 ROOT
