@<TRIPOS>MOLECULE
PK2
   54    57     1     0     0
SMALL
No Charge or Current Charge


@<TRIPOS>ATOM
      1 C2          -3.8310     2.7570     0.5350 c          1 PK2       0.592600
      2 O14         -4.9750     2.9390     0.9250 o          1 PK2      -0.555000
      3 N3          -2.9710     3.7750     0.3560 ns         1 PK2      -0.453400
      4 C4          -1.7060     3.6110    -0.0610 cc         1 PK2       0.704800
      5 N15         -0.9940     4.7170    -0.1860 nv         1 PK2      -1.034200
      6 N5          -1.0990     2.4930    -0.3610 nd         1 PK2      -0.698100
      7 C6          -1.9100     1.3450    -0.2170 ca         1 PK2       0.219400
      8 C10         -1.3480     0.0690    -0.5200 ca         1 PK2      -0.059300
      9 C18          0.1050    -0.0860    -0.9900 c3         1 PK2      -0.012100
     10 C19          1.0860    -0.1900     0.1960 c3         1 PK2       0.166800
     11 N20          2.4710    -0.3880    -0.2790 n7         1 PK2      -0.867400
     12 C21          3.4910    -0.4670     0.7830 c3         1 PK2       0.165800
     13 C22          4.9300    -0.6780     0.2250 c6         1 PK2      -0.059700
     14 C27          5.9390    -0.9360     1.3800 c6         1 PK2      -0.069900
     15 C26          7.3760    -1.1600     0.8460 c6         1 PK2      -0.073400
     16 C25          7.8410     0.0320    -0.0250 c6         1 PK2      -0.074400
     17 C24          6.8480     0.2980    -1.1810 c6         1 PK2      -0.073400
     18 C23          5.4100     0.5200    -0.6490 c6         1 PK2      -0.069900
     19 C9          -2.1570    -1.0740    -0.3610 ca         1 PK2       0.160400
     20 N11         -1.8170    -2.4060    -0.5820 nc         1 PK2      -0.671100
     21 C12         -2.9510    -3.0250    -0.2730 cd         1 PK2       0.687700
     22 N16         -3.0200    -4.3620    -0.3650 nu         1 PK2      -0.914400
     23 C17         -4.1430    -5.2250     0.0290 c3         1 PK2       0.219100
     24 N13         -3.9990    -2.2170     0.1300 na         1 PK2      -0.358600
     25 C8          -3.4520    -0.9650     0.0630 ca         1 PK2      -0.117200
     26 C7          -4.0460     0.2610     0.3640 ca         1 PK2      -0.028000
     27 C1          -3.2590     1.4240     0.2210 ca         1 PK2      -0.229600
     28 HN3         -3.3060     4.6970     0.5780 hn         1 PK2       0.323500
     29 HN15        -1.4970     5.5600    -0.4310 hn         1 PK2       0.487000
     30 HN1A        -0.1130     4.5830    -0.6660 hn         1 PK2       0.487000
     31 H18          0.2080    -0.9800    -1.6160 hc         1 PK2       0.061700
     32 H18A         0.4010     0.7520    -1.6310 hc         1 PK2       0.061700
     33 H19          1.0160     0.7280     0.7950 h1         1 PK2       0.033200
     34 H19A         0.7800    -1.0290     0.8370 h1         1 PK2       0.033200
     35 HN20         2.5030    -1.2640    -0.8140 hn         1 PK2       0.403000
     36 H21          3.4820     0.4510     1.3870 h1         1 PK2       0.025700
     37 H21A         3.2580    -1.3040     1.4550 h1         1 PK2       0.025700
     38 H22          4.8920    -1.5790    -0.4040 hc         1 PK2       0.042700
     39 H27          5.9340    -0.0860     2.0760 hc         1 PK2       0.041950
     40 H27A         5.6260    -1.8150     1.9620 hc         1 PK2       0.041950
     41 H26          8.0680    -1.2990     1.6870 hc         1 PK2       0.035950
     42 H26A         7.4110    -2.0860     0.2550 hc         1 PK2       0.035950
     43 H25          7.9330     0.9330     0.5990 hc         1 PK2       0.035700
     44 H25A         8.8420    -0.1700    -0.4300 hc         1 PK2       0.035700
     45 H24          7.1720     1.1760    -1.7560 hc         1 PK2       0.035950
     46 H24A         6.8570    -0.5520    -1.8790 hc         1 PK2       0.035950
     47 H23          4.7300     0.6670    -1.4990 hc         1 PK2       0.041950
     48 H23A         5.3750     1.4470    -0.0600 hc         1 PK2       0.041950
     49 HN16        -2.1340    -4.7860    -0.6330 hn         1 PK2       0.523000
     50 H17         -5.0340    -4.9930    -0.5700 h1         1 PK2       0.040033
     51 H17A        -3.8880    -6.2820    -0.1250 h1         1 PK2       0.040033
     52 H17B        -4.3870    -5.0780     1.0900 h1         1 PK2       0.040033
     53 HN13        -4.9260    -2.5090     0.3970 hn         1 PK2       0.357000
     54 H7          -5.0800     0.3100     0.7010 ha         1 PK2       0.135000
@<TRIPOS>BOND
     1     1     2 2   
     2     1     3 1   
     3     1    27 1   
     4     3     4 1   
     5     3    28 1   
     6     4     5 1   
     7     4     6 2   
     8     5    29 1   
     9     5    30 1   
    10     6     7 1   
    11     7     8 ar  
    12     7    27 ar  
    13     8     9 1   
    14     8    19 ar  
    15     9    10 1   
    16     9    31 1   
    17     9    32 1   
    18    10    11 1   
    19    10    33 1   
    20    10    34 1   
    21    11    12 1   
    22    11    35 1   
    23    12    13 1   
    24    12    36 1   
    25    12    37 1   
    26    13    14 1   
    27    13    18 1   
    28    13    38 1   
    29    14    15 1   
    30    14    39 1   
    31    14    40 1   
    32    15    16 1   
    33    15    41 1   
    34    15    42 1   
    35    16    17 1   
    36    16    43 1   
    37    16    44 1   
    38    17    18 1   
    39    17    45 1   
    40    17    46 1   
    41    18    47 1   
    42    18    48 1   
    43    19    20 1   
    44    19    25 ar  
    45    20    21 2   
    46    21    22 1   
    47    21    24 1   
    48    22    23 1   
    49    22    49 1   
    50    23    50 1   
    51    23    51 1   
    52    23    52 1   
    53    24    25 1   
    54    24    53 1   
    55    25    26 ar  
    56    26    27 ar  
    57    26    54 1   
@<TRIPOS>SUBSTRUCTURE
     1 PK2         1 TEMP              0 ****  ****    0 ROOT
