@<TRIPOS>MOLECULE
PK3
   34    36     1     0     0
SMALL
abcg2


@<TRIPOS>ATOM
      1 N6          -2.5220     0.1940    -0.2970 na         1 PK3      -0.359600
      2 C11         -3.1810    -0.9870    -0.0830 cc         1 PK3       0.659700
      3 N5          -4.5210    -1.0590    -0.1100 nu         1 PK3      -0.900400
      4 C12         -5.3730     0.1070    -0.0930 c3         1 PK3       0.210100
      5 N4          -2.3720    -1.9970     0.1210 nd         1 PK3      -0.642100
      6 C6          -1.1070    -1.4610     0.0320 ca         1 PK3       0.074400
      7 C7          -1.1760    -0.0720    -0.2340 ca         1 PK3      -0.028200
      8 C8          -0.0820     0.7560    -0.3780 ca         1 PK3      -0.105300
      9 C9          -0.2310     2.2270    -0.6320 c3         1 PK3      -0.017100
     10 C3           1.1790     0.1420    -0.2320 ca         1 PK3       0.232400
     11 N2           2.2930     0.9330    -0.3450 nc         1 PK3      -0.711100
     12 C4           3.4540     0.3800    -0.2300 cd         1 PK3       0.710800
     13 N3           4.5850     1.1010    -0.3940 nv         1 PK3      -1.034200
     14 N1           3.6210    -0.9570     0.0120 ns         1 PK3      -0.454400
     15 C1           2.5800    -1.8460     0.1590 c          1 PK3       0.592600
     16 O1           2.8040    -3.0270     0.3800 o          1 PK3      -0.543000
     17 C2           1.2640    -1.2460     0.0270 ca         1 PK3      -0.237600
     18 C5           0.1280    -2.0540     0.1600 ca         1 PK3       0.014000
     19 C10         -0.3880     2.9990     0.6710 c3         1 PK3       0.162600
     20 O2          -0.5490     4.3660     0.3650 oh         1 PK3      -0.666000
     21 HN6         -2.9470     1.0830    -0.5060 hn         1 PK3       0.359000
     22 HN5         -4.9090    -1.9280     0.2160 hn         1 PK3       0.513000
     23 H12         -6.4060    -0.2270    -0.1250 h1         1 PK3       0.039033
     24 H12A        -5.2410     0.7200     0.8030 h1         1 PK3       0.039033
     25 H12B        -5.2060     0.7340    -0.9700 h1         1 PK3       0.039033
     26 H9           0.6420     2.5990    -1.1690 hc         1 PK3       0.061700
     27 H9A         -1.0990     2.4140    -1.2700 hc         1 PK3       0.061700
     28 HN3          4.4760     2.1010    -0.3760 hn         1 PK3       0.487500
     29 HN3A         5.4500     0.7630    -0.0050 hn         1 PK3       0.487500
     30 HN1          4.5560    -1.3360     0.0850 hn         1 PK3       0.324500
     31 H5           0.2270    -3.1130     0.3590 ha         1 PK3       0.149000
     32 H10         -1.2510     2.6070     1.2240 h1         1 PK3       0.019700
     33 H10A         0.4960     2.8260     1.2980 h1         1 PK3       0.019700
     34 HO2         -0.6930     4.8430     1.1870 ho         1 PK3       0.440000
@<TRIPOS>BOND
     1     1     2 1   
     2     1     7 1   
     3     1    21 1   
     4     2     3 1   
     5     2     5 2   
     6     3     4 1   
     7     3    22 1   
     8     4    23 1   
     9     4    24 1   
    10     4    25 1   
    11     5     6 1   
    12     6     7 ar  
    13     6    18 ar  
    14     7     8 ar  
    15     8     9 1   
    16     8    10 ar  
    17     9    19 1   
    18     9    26 1   
    19     9    27 1   
    20    10    11 1   
    21    10    17 ar  
    22    11    12 2   
    23    12    13 1   
    24    12    14 1   
    25    13    28 1   
    26    13    29 1   
    27    14    15 1   
    28    14    30 1   
    29    15    16 2   
    30    15    17 1   
    31    17    18 ar  
    32    18    31 1   
    33    19    20 1   
    34    19    32 1   
    35    19    33 1   
    36    20    34 1   
@<TRIPOS>SUBSTRUCTURE
     1 PK3         1 TEMP              0 ****  ****    0 ROOT
