@<TRIPOS>MOLECULE
PK3
   34    36     1     0     0
SMALL
No Charge or Current Charge


@<TRIPOS>ATOM
      1 N6          -2.5270     0.2360    -0.2450 na         1 PK3      -0.359600
      2 C11         -3.1960    -0.9470    -0.0290 cc         1 PK3       0.659700
      3 N5          -4.5390    -1.0770     0.0040 nu         1 PK3      -0.900400
      4 C12         -5.5390    -0.0170    -0.1840 c3         1 PK3       0.210100
      5 N4          -2.3810    -1.9830     0.1530 nd         1 PK3      -0.642100
      6 C6          -1.1160    -1.4020     0.0420 ca         1 PK3       0.074400
      7 C7          -1.1970    -0.0600    -0.2020 ca         1 PK3      -0.028200
      8 C8          -0.0710     0.7670    -0.3550 ca         1 PK3      -0.105300
      9 C9          -0.2530     2.2670    -0.6190 c3         1 PK3      -0.017100
     10 C3           1.2160     0.1640    -0.2400 ca         1 PK3       0.232400
     11 N2           2.3580     0.9810    -0.3760 nc         1 PK3      -0.711100
     12 C4           3.4730     0.3100    -0.2490 cd         1 PK3       0.710800
     13 N3           4.5660     1.0430    -0.3630 nv         1 PK3      -1.034200
     14 N1           3.6520    -0.9950    -0.0170 ns         1 PK3      -0.454400
     15 C1           2.6330    -1.8610     0.1270 c          1 PK3       0.592600
     16 O1           2.8180    -3.0510     0.3320 o          1 PK3      -0.543000
     17 C2           1.2950    -1.2350     0.0110 ca         1 PK3      -0.237600
     18 C5           0.1290    -2.0260     0.1520 ca         1 PK3       0.014000
     19 C10         -0.2470     3.0900     0.6860 c3         1 PK3       0.162600
     20 O2          -0.4750     4.4750     0.3970 oh         1 PK3      -0.666000
     21 HN6         -2.9590     1.1320    -0.4020 hn         1 PK3       0.359000
     22 HN5         -4.8480    -2.0330     0.1760 hn         1 PK3       0.513000
     23 H12         -6.5540    -0.4280    -0.1040 h1         1 PK3       0.039033
     24 H12A        -5.4200     0.7630     0.5800 h1         1 PK3       0.039033
     25 H12B        -5.4290     0.4440    -1.1750 h1         1 PK3       0.039033
     26 H9           0.5320     2.6450    -1.2850 hc         1 PK3       0.061700
     27 H9A         -1.1950     2.4500    -1.1490 hc         1 PK3       0.061700
     28 HN3          4.3820     2.0380    -0.3530 hn         1 PK3       0.487500
     29 HN3A         5.3820     0.7480     0.1590 hn         1 PK3       0.487500
     30 HN1          4.5800    -1.3800     0.0330 hn         1 PK3       0.324500
     31 H5           0.1870    -3.0950     0.3450 ha         1 PK3       0.149000
     32 H10         -1.0310     2.7080     1.3540 h1         1 PK3       0.019700
     33 H10A         0.7190     2.9600     1.1910 h1         1 PK3       0.019700
     34 HO2         -0.4450     4.9540     1.2550 ho         1 PK3       0.440000
@<TRIPOS>BOND
     1     1     2 1   
     2     1     7 1   
     3     1    21 1   
     4     2     3 1   
     5     2     5 2   
     6     3     4 1   
     7     3    22 1   
     8     4    23 1   
     9     4    24 1   
    10     4    25 1   
    11     5     6 1   
    12     6     7 ar  
    13     6    18 ar  
    14     7     8 ar  
    15     8     9 1   
    16     8    10 ar  
    17     9    19 1   
    18     9    26 1   
    19     9    27 1   
    20    10    11 1   
    21    10    17 ar  
    22    11    12 2   
    23    12    13 1   
    24    12    14 1   
    25    13    28 1   
    26    13    29 1   
    27    14    15 1   
    28    14    30 1   
    29    15    16 2   
    30    15    17 1   
    31    17    18 ar  
    32    18    31 1   
    33    19    20 1   
    34    19    32 1   
    35    19    33 1   
    36    20    34 1   
@<TRIPOS>SUBSTRUCTURE
     1 PK3         1 TEMP              0 ****  ****    0 ROOT
