@<TRIPOS>MOLECULE
PK6
   17    17     1     0     0
SMALL
No Charge or Current Charge


@<TRIPOS>ATOM
      1 O1          -1.6740    -1.2490    -0.4880 o          1 PK6      -0.533500
      2 S1          -0.9810     0.0300    -0.3140 sy         1 PK6       1.192600
      3 O2          -1.0750     1.1380    -1.2650 o          1 PK6      -0.533500
      4 N1          -1.4400     0.6090     1.1760 n7         1 PK6      -0.865300
      5 C1          -2.5020     1.6300     1.2250 c3         1 PK6       0.181100
      6 C2           0.7240    -0.2940     0.0030 cc         1 PK6      -0.489500
      7 C3           1.2430    -1.3450     0.7170 cd         1 PK6       0.004000
      8 C4           2.6620    -1.3220     0.7740 cd         1 PK6      -0.158000
      9 C5           3.2200    -0.2620     0.1020 cc         1 PK6      -0.222000
     10 S2           1.9800     0.7480    -0.6380 ss         1 PK6       0.348000
     11 H1          -0.5590     0.9910     1.5140 hn         1 PK6       0.482000
     12 H2          -3.4390     1.2440     0.8010 h1         1 PK6       0.051700
     13 H3          -2.7030     1.9280     2.2630 h1         1 PK6       0.051700
     14 H4          -2.2200     2.5340     0.6670 h1         1 PK6       0.051700
     15 H5           0.6360    -2.1140     1.1910 ha         1 PK6       0.147000
     16 H6           3.2470    -2.0720     1.2990 ha         1 PK6       0.140000
     17 H7           4.2630     0.0020    -0.0190 h4         1 PK6       0.153000
@<TRIPOS>BOND
     1     1     2 2   
     2     2     3 2   
     3     2     4 1   
     4     2     6 1   
     5     4     5 1   
     6     4    11 1   
     7     5    12 1   
     8     5    13 1   
     9     5    14 1   
    10     6     7 2   
    11     6    10 1   
    12     7     8 1   
    13     7    15 1   
    14     8     9 2   
    15     8    16 1   
    16     9    10 1   
    17     9    17 1   
@<TRIPOS>SUBSTRUCTURE
     1 PK6         1 TEMP              0 ****  ****    0 ROOT
