@<TRIPOS>MOLECULE
PK6
   17    17     1     0     0
SMALL
abcg2


@<TRIPOS>ATOM
      1 O1          -1.6730    -1.7670    -0.3500 o          1 PK6      -0.533500
      2 S1          -1.2380    -0.3830    -0.3490 sy         1 PK6       1.192600
      3 O2          -1.4400     0.4690    -1.5080 o          1 PK6      -0.533500
      4 N1          -1.9950     0.3360     0.9140 n7         1 PK6      -0.865300
      5 C1          -1.7040     1.7300     1.2160 c3         1 PK6       0.181100
      6 C2           0.4830    -0.3590    -0.0330 cc         1 PK6      -0.489500
      7 C3           1.1960    -1.2600     0.7030 cd         1 PK6       0.004000
      8 C4           2.5620    -0.9000     0.7880 cd         1 PK6      -0.158000
      9 C5           2.8400     0.2580     0.1210 cc         1 PK6      -0.222000
     10 S2           1.4570     0.9240    -0.6230 ss         1 PK6       0.348000
     11 H1          -2.0240    -0.2670     1.7290 hn         1 PK6       0.482000
     12 H2          -1.9130     2.3520     0.3500 h1         1 PK6       0.051700
     13 H3          -2.3680     2.0370     2.0190 h1         1 PK6       0.051700
     14 H4          -0.6730     1.8980     1.5390 h1         1 PK6       0.051700
     15 H5           0.7700    -2.1430     1.1570 ha         1 PK6       0.147000
     16 H6           3.3070    -1.4780     1.3150 ha         1 PK6       0.140000
     17 H7           3.7960     0.7500     0.0200 h4         1 PK6       0.153000
@<TRIPOS>BOND
     1     1     2 2   
     2     2     3 2   
     3     2     4 1   
     4     2     6 1   
     5     4     5 1   
     6     4    11 1   
     7     5    12 1   
     8     5    13 1   
     9     5    14 1   
    10     6     7 2   
    11     6    10 1   
    12     7     8 1   
    13     7    15 1   
    14     8     9 2   
    15     8    16 1   
    16     9    10 1   
    17     9    17 1   
@<TRIPOS>SUBSTRUCTURE
     1 PK6         1 TEMP              0 ****  ****    0 ROOT
