@<TRIPOS>MOLECULE
PK7
   17    17     1     0     0
SMALL
No Charge or Current Charge


@<TRIPOS>ATOM
      1 C2          21.8790    20.9370   -28.0610 c3         1 PK7       0.201100
      2 C3          20.3900    20.8760   -27.7510 ca         1 PK7      -0.094300
      3 C10         19.5540    19.9940   -28.4660 ca         1 PK7      -0.056000
      4 C4          19.8340    21.7010   -26.7510 ca         1 PK7      -0.087000
      5 C5          18.4560    21.6440   -26.4710 ca         1 PK7      -0.146000
      6 C6          17.6300    20.7640   -27.1880 ca         1 PK7       0.177000
      7 C8          18.1770    19.9360   -28.1870 ca         1 PK7       0.066000
      8 F7          16.3070    20.7180   -26.9090 f          1 PK7      -0.163000
      9 N1          22.5950    19.7930   -27.4680 n8         1 PK7      -1.003200
     10 Cl9         17.1540    18.8230   -29.0970 cl         1 PK7      -0.174000
     11 H1          22.3070    21.8690   -27.6650 h1         1 PK7       0.038200
     12 H2          22.0310    20.9270   -29.1490 h1         1 PK7       0.038200
     13 H3          19.9740    19.3520   -29.2370 ha         1 PK7       0.151000
     14 H4          20.4680    22.3860   -26.1910 ha         1 PK7       0.117000
     15 H5          18.0290    22.2810   -25.7000 ha         1 PK7       0.135000
     16 H6          23.6030    19.9150   -27.6250 hn         1 PK7       0.401000
     17 H7          22.5010    19.8430   -26.4460 hn         1 PK7       0.401000
@<TRIPOS>BOND
     1     1     2 1   
     2     1     9 1   
     3     1    11 1   
     4     1    12 1   
     5     2     3 ar  
     6     2     4 ar  
     7     3     7 ar  
     8     3    13 1   
     9     4     5 ar  
    10     4    14 1   
    11     5     6 ar  
    12     5    15 1   
    13     6     7 ar  
    14     6     8 1   
    15     7    10 1   
    16     9    16 1   
    17     9    17 1   
@<TRIPOS>SUBSTRUCTURE
     1 PK7         1 TEMP              0 ****  ****    0 ROOT
