@<TRIPOS>MOLECULE
PK7
   17    17     1     0     0
SMALL
bcc


@<TRIPOS>ATOM
      1 C2          21.8990    21.0010   -27.7730 c3         1 PK7       0.201100
      2 C3          20.4050    20.9130   -27.5810 ca         1 PK7      -0.094300
      3 C10         19.6700    19.8750   -28.1430 ca         1 PK7      -0.074000
      4 C4          19.7320    21.8920   -26.8550 ca         1 PK7      -0.105000
      5 C5          18.3540    21.8520   -26.6980 ca         1 PK7      -0.164000
      6 C6          17.6450    20.8150   -27.2680 ca         1 PK7       0.141900
      7 C8          18.2940    19.8270   -27.9870 ca         1 PK7      -0.025600
      8 F7          16.3170    20.7540   -27.1210 f          1 PK7      -0.127900
      9 N1          22.5000    19.7050   -28.0160 n8         1 PK7      -0.892800
     10 CL9         17.3730    18.5420   -28.6790 cl         1 PK7      -0.082400
     11 H1          22.3260    21.5380   -26.9150 h1         1 PK7       0.038200
     12 H2          22.0940    21.6320   -28.6440 h1         1 PK7       0.038200
     13 H3          20.1760    19.0970   -28.6990 ha         1 PK7       0.169000
     14 H4          20.2870    22.7030   -26.4000 ha         1 PK7       0.135000
     15 H5          17.8340    22.6150   -26.1330 ha         1 PK7       0.153000
     16 H6          23.4640    19.8280   -28.2950 hn         1 PK7       0.345800
     17 H7          22.5200    19.1710   -27.1560 hn         1 PK7       0.345800
@<TRIPOS>BOND
     1     1     2 1   
     2     1     9 1   
     3     1    11 1   
     4     1    12 1   
     5     2     3 ar  
     6     2     4 ar  
     7     3     7 ar  
     8     3    13 1   
     9     4     5 ar  
    10     4    14 1   
    11     5     6 ar  
    12     5    15 1   
    13     6     7 ar  
    14     6     8 1   
    15     7    10 1   
    16     9    16 1   
    17     9    17 1   
@<TRIPOS>SUBSTRUCTURE
     1 PK7         1 TEMP              0 ****  ****    0 ROOT
