@<TRIPOS>MOLECULE
PK9
   50    50     1     0     0
SMALL
No Charge or Current Charge


@<TRIPOS>ATOM
      1 O15          3.5710    -1.0380    -1.7200 o          1 PK9      -0.607100
      2 C14          3.3030    -0.4440    -0.6860 c          1 PK9       0.600100
      3 N16          4.0650    -0.5620     0.4540 ns         1 PK9      -0.505900
      4 C17          5.2610    -1.3970     0.5770 c3         1 PK9       0.151300
      5 C18          6.5270    -0.5780     0.3920 ca         1 PK9      -0.167300
      6 C23          7.2900    -0.1790     1.5060 ca         1 PK9       0.339900
      7 N22          8.4270     0.5490     1.4040 nb         1 PK9      -0.666000
      8 C21          8.8390     0.9040     0.1650 ca         1 PK9       0.337900
      9 C20          8.1410     0.5500    -1.0010 ca         1 PK9      -0.166000
     10 C19          6.9630    -0.2060    -0.8930 ca         1 PK9      -0.054000
     11 C13          2.1140     0.5170    -0.5730 c3         1 PK9      -0.157400
     12 C12          0.7700    -0.2460    -0.5030 c3         1 PK9      -0.068400
     13 C11         -0.4510     0.6920    -0.3850 c3         1 PK9      -0.074400
     14 C10         -1.7930    -0.0690    -0.3150 c3         1 PK9      -0.094400
     15 C09         -3.0090     0.8710    -0.1980 c3         1 PK9       0.120000
     16 N08         -4.2620     0.1250    -0.1340 ns         1 PK9      -0.506900
     17 C06         -5.4940     0.6970    -0.0130 c          1 PK9       0.648100
     18 O07         -5.6940     1.8980     0.0560 o          1 PK9      -0.551000
     19 O05         -6.4260    -0.3040     0.0150 os         1 PK9      -0.481100
     20 C02         -7.8440    -0.0450     0.1370 c3         1 PK9       0.225000
     21 C04         -8.3330     0.7720    -1.0870 c3         1 PK9      -0.108433
     22 C03         -8.4910    -1.4480     0.1250 c3         1 PK9      -0.108433
     23 C01         -8.1320     0.6580     1.4900 c3         1 PK9      -0.108433
     24 H16          3.7680    -0.0230     1.2590 hn         1 PK9       0.314500
     25 H131         2.2120     1.1310     0.3300 hc         1 PK9       0.058700
     26 H132         2.1010     1.1620    -1.4600 hc         1 PK9       0.058700
     27 H171         5.2600    -1.8630     1.5720 h1         1 PK9       0.066200
     28 H172         5.2300    -2.2070    -0.1640 h1         1 PK9       0.066200
     29 H23          6.9830    -0.4490     2.5160 h4         1 PK9       0.014100
     30 H19          6.4030    -0.4930    -1.7810 ha         1 PK9       0.133000
     31 H21          9.7560     1.4900     0.1070 h4         1 PK9       0.019100
     32 H20          8.5140     0.8600    -1.9730 ha         1 PK9       0.126000
     33 H121         0.6610    -0.8700    -1.4000 hc         1 PK9       0.053700
     34 H122         0.7870    -0.9270     0.3580 hc         1 PK9       0.053700
     35 H111        -0.3430     1.3150     0.5120 hc         1 PK9       0.042200
     36 H112        -0.4670     1.3730    -1.2460 hc         1 PK9       0.042200
     37 H101        -1.9040    -0.6890    -1.2140 hc         1 PK9       0.046700
     38 H102        -1.7800    -0.7470     0.5470 hc         1 PK9       0.046700
     39 H091        -2.9150     1.4840     0.7080 h1         1 PK9       0.049700
     40 H092        -3.0410     1.5420    -1.0670 h1         1 PK9       0.049700
     41 H08         -4.2440    -0.8850    -0.1800 hn         1 PK9       0.322500
     42 H041        -7.9660     0.3300    -2.0210 hc         1 PK9       0.048922
     43 H042        -9.4290     0.7840    -1.1250 hc         1 PK9       0.048922
     44 H043        -8.0000     1.8150    -1.0430 hc         1 PK9       0.048922
     45 H031        -8.1220    -2.0540     0.9610 hc         1 PK9       0.048922
     46 H032        -9.5820    -1.3760     0.2130 hc         1 PK9       0.048922
     47 H033        -8.2600    -1.9760    -0.8080 hc         1 PK9       0.048922
     48 H011        -7.8030     1.7020     1.4880 hc         1 PK9       0.048922
     49 H012        -9.2090     0.6580     1.6980 hc         1 PK9       0.048922
     50 H013        -7.6290     0.1370     2.3130 hc         1 PK9       0.048922
@<TRIPOS>BOND
     1     1     2 2   
     2     2     3 1   
     3     2    11 1   
     4     3     4 1   
     5     3    24 1   
     6     4     5 1   
     7     4    27 1   
     8     4    28 1   
     9     5     6 ar  
    10     5    10 ar  
    11     6     7 ar  
    12     6    29 1   
    13     7     8 ar  
    14     8     9 ar  
    15     8    31 1   
    16     9    10 ar  
    17     9    32 1   
    18    10    30 1   
    19    11    12 1   
    20    11    25 1   
    21    11    26 1   
    22    12    13 1   
    23    12    33 1   
    24    12    34 1   
    25    13    14 1   
    26    13    35 1   
    27    13    36 1   
    28    14    15 1   
    29    14    37 1   
    30    14    38 1   
    31    15    16 1   
    32    15    39 1   
    33    15    40 1   
    34    16    17 1   
    35    16    41 1   
    36    17    18 2   
    37    17    19 1   
    38    19    20 1   
    39    20    21 1   
    40    20    22 1   
    41    20    23 1   
    42    21    42 1   
    43    21    43 1   
    44    21    44 1   
    45    22    45 1   
    46    22    46 1   
    47    22    47 1   
    48    23    48 1   
    49    23    49 1   
    50    23    50 1   
@<TRIPOS>SUBSTRUCTURE
     1 PK9         1 TEMP              0 ****  ****    0 ROOT
