@<TRIPOS>MOLECULE
PK9
   50    50     1     0     0
SMALL
abcg2


@<TRIPOS>ATOM
      1 O15          3.3620    -1.0230    -1.4880 o          1 PK9      -0.607100
      2 C14          3.2350    -0.4420    -0.4170 c          1 PK9       0.600100
      3 N16          4.1260    -0.5530     0.5840 ns         1 PK9      -0.505900
      4 C17          5.3210    -1.3620     0.5160 c3         1 PK9       0.151300
      5 C18          6.5620    -0.5520     0.2460 ca         1 PK9      -0.167300
      6 C23          7.6040    -0.5170     1.1630 ca         1 PK9       0.339900
      7 N22          8.7250     0.1760     0.9930 nb         1 PK9      -0.666000
      8 C21          8.8510     0.8810    -0.1230 ca         1 PK9       0.337900
      9 C20          7.8740     0.9210    -1.1100 ca         1 PK9      -0.166000
     10 C19          6.7130     0.1920    -0.9200 ca         1 PK9      -0.054000
     11 C13          2.0430     0.4440    -0.1340 c3         1 PK9      -0.157400
     12 C12          0.7270    -0.3130    -0.2970 c3         1 PK9      -0.068400
     13 C11         -0.4850     0.5890    -0.1060 c3         1 PK9      -0.074400
     14 C10         -1.7990    -0.1730    -0.2100 c3         1 PK9      -0.094400
     15 C09         -3.0010     0.7470    -0.0640 c3         1 PK9       0.120000
     16 N08         -4.2290    -0.0180    -0.0900 ns         1 PK9      -0.506900
     17 C06         -5.4380     0.5760    -0.1180 c          1 PK9       0.648100
     18 O07         -5.6020     1.7740    -0.2440 o          1 PK9      -0.551000
     19 O05         -6.4070    -0.3350    -0.0020 os         1 PK9      -0.481100
     20 C02         -7.8140     0.0170     0.0080 c3         1 PK9       0.225000
     21 C04         -8.2380     0.5880    -1.3400 c3         1 PK9      -0.108433
     22 C03         -8.5020    -1.3230     0.2380 c3         1 PK9      -0.108433
     23 C01         -8.1440     0.9640     1.1570 c3         1 PK9      -0.108433
     24 H16          3.9740    -0.0240     1.4270 hn         1 PK9       0.314500
     25 H131         2.0990     0.8800     0.8660 hc         1 PK9       0.058700
     26 H132         2.0760     1.2760    -0.8430 hc         1 PK9       0.058700
     27 H171         5.4310    -1.9020     1.4570 h1         1 PK9       0.066200
     28 H172         5.1820    -2.1080    -0.2660 h1         1 PK9       0.066200
     29 H23          7.5260    -1.0840     2.0870 h4         1 PK9       0.014100
     30 H19          5.9360     0.1970    -1.6750 ha         1 PK9       0.133000
     31 H21          9.7720     1.4420    -0.2440 h4         1 PK9       0.019100
     32 H20          8.0270     1.5090    -2.0040 ha         1 PK9       0.126000
     33 H121         0.6890    -0.7700    -1.2890 hc         1 PK9       0.053700
     34 H122         0.6890    -1.1340     0.4260 hc         1 PK9       0.053700
     35 H111        -0.4280     1.0810     0.8710 hc         1 PK9       0.042200
     36 H112        -0.4630     1.3890    -0.8530 hc         1 PK9       0.042200
     37 H101        -1.8530    -0.6930    -1.1720 hc         1 PK9       0.046700
     38 H102        -1.8320    -0.9450     0.5660 hc         1 PK9       0.046700
     39 H091        -2.9180     1.3160     0.8690 h1         1 PK9       0.049700
     40 H092        -3.0050     1.4740    -0.8790 h1         1 PK9       0.049700
     41 H08         -4.1800    -1.0020     0.1200 hn         1 PK9       0.322500
     42 H041        -7.9930    -0.1020    -2.1490 hc         1 PK9       0.048922
     43 H042        -9.3190     0.7320    -1.3470 hc         1 PK9       0.048922
     44 H043        -7.7740     1.5490    -1.5490 hc         1 PK9       0.048922
     45 H031        -8.2030    -1.7660     1.1900 hc         1 PK9       0.048922
     46 H032        -9.5830    -1.1830     0.2600 hc         1 PK9       0.048922
     47 H033        -8.2730    -2.0320    -0.5590 hc         1 PK9       0.048922
     48 H011        -7.7690     1.9710     0.9940 hc         1 PK9       0.048922
     49 H012        -9.2280     1.0240     1.2670 hc         1 PK9       0.048922
     50 H013        -7.7410     0.5890     2.1000 hc         1 PK9       0.048922
@<TRIPOS>BOND
     1     1     2 2   
     2     2     3 1   
     3     2    11 1   
     4     3     4 1   
     5     3    24 1   
     6     4     5 1   
     7     4    27 1   
     8     4    28 1   
     9     5     6 ar  
    10     5    10 ar  
    11     6     7 ar  
    12     6    29 1   
    13     7     8 ar  
    14     8     9 ar  
    15     8    31 1   
    16     9    10 ar  
    17     9    32 1   
    18    10    30 1   
    19    11    12 1   
    20    11    25 1   
    21    11    26 1   
    22    12    13 1   
    23    12    33 1   
    24    12    34 1   
    25    13    14 1   
    26    13    35 1   
    27    13    36 1   
    28    14    15 1   
    29    14    37 1   
    30    14    38 1   
    31    15    16 1   
    32    15    39 1   
    33    15    40 1   
    34    16    17 1   
    35    16    41 1   
    36    17    18 2   
    37    17    19 1   
    38    19    20 1   
    39    20    21 1   
    40    20    22 1   
    41    20    23 1   
    42    21    42 1   
    43    21    43 1   
    44    21    44 1   
    45    22    45 1   
    46    22    46 1   
    47    22    47 1   
    48    23    48 1   
    49    23    49 1   
    50    23    50 1   
@<TRIPOS>SUBSTRUCTURE
     1 PK9         1 TEMP              0 ****  ****    0 ROOT
