@<TRIPOS>MOLECULE
PKA
   46    48     1     0     0
SMALL
No Charge or Current Charge


@<TRIPOS>ATOM
      1 C1          -4.2960    -1.9880    -1.0860 c3         1 PKA      -0.092100
      2 C2          -4.9250    -1.3840     0.1880 c3         1 PKA      -0.084400
      3 C3          -4.4520     0.0640     0.4950 c3         1 PKA       0.105700
      4 C4          -5.1940     0.6450     1.7210 c3         1 PKA      -0.105100
      5 N5          -2.9710     0.1810     0.6410 n          1 PKA      -0.389800
      6 C6          -2.3110    -0.7090     1.6320 c3         1 PKA       0.101300
      7 C7          -2.2880     1.3150     0.1070 c          1 PKA       0.520600
      8 O8          -2.9370     2.2560    -0.3470 o          1 PKA      -0.603100
      9 C9          -0.7450     1.3390     0.0480 ca         1 PKA       0.282500
     10 N18         -0.0270     0.1780     0.0080 nb         1 PKA      -0.650000
     11 C17          1.3190     0.2150    -0.0930 cp         1 PKA       0.425500
     12 C10         -0.0950     2.5890    -0.0410 ca         1 PKA      -0.087000
     13 C11          1.3060     2.6490    -0.1210 ca         1 PKA      -0.024000
     14 C12          1.9710     3.8890    -0.1780 ca         1 PKA      -0.099000
     15 C16          2.0370     1.4440    -0.1380 ca         1 PKA      -0.065000
     16 C13          3.3730     3.9300    -0.2390 ca         1 PKA      -0.093000
     17 C14          4.1100     2.7350    -0.2410 ca         1 PKA      -0.106000
     18 C15          3.4480     1.4960    -0.1880 ca         1 PKA      -0.079000
     19 C19          1.9830    -1.1200    -0.1100 cp         1 PKA      -0.138500
     20 C24          2.6550    -1.5990    -1.2640 ca         1 PKA       0.135000
     21 C23          3.2720    -2.8620    -1.2590 ca         1 PKA      -0.108000
     22 C20          1.9320    -1.9560     1.0340 ca         1 PKA      -0.076000
     23 C21          2.5510    -3.2170     1.0350 ca         1 PKA      -0.113000
     24 C22          3.2250    -3.6700    -0.1110 ca         1 PKA      -0.095000
     25 Cl           2.7150    -0.6490    -2.7480 cl         1 PKA      -0.190000
     26 H1C         -3.2090    -2.0820    -0.9830 hc         1 PKA       0.038700
     27 H1A         -4.7070    -2.9860    -1.2770 hc         1 PKA       0.038700
     28 H1B         -4.5080    -1.3580    -1.9590 hc         1 PKA       0.038700
     29 H2A         -6.0150    -1.3780     0.0630 hc         1 PKA       0.040200
     30 H2B         -4.7170    -2.0420     1.0390 hc         1 PKA       0.040200
     31 H3          -4.7580     0.6650    -0.3720 h1         1 PKA       0.082700
     32 H4C         -4.9940     0.0580     2.6250 hc         1 PKA       0.040367
     33 H4A         -4.8800     1.6790     1.9050 hc         1 PKA       0.040367
     34 H4B         -6.2770     0.6470     1.5490 hc         1 PKA       0.040367
     35 H6A         -1.8090    -1.5340     1.1120 h1         1 PKA       0.038033
     36 H6B         -1.5760    -0.1440     2.2190 h1         1 PKA       0.038033
     37 H6C         -3.0450    -1.1310     2.3290 h1         1 PKA       0.038033
     38 H10         -0.6790     3.5050    -0.0290 ha         1 PKA       0.140000
     39 H12          1.4050     4.8180    -0.1690 ha         1 PKA       0.121000
     40 H13          3.8880     4.8880    -0.2810 ha         1 PKA       0.117000
     41 H14          5.1970     2.7680    -0.2820 ha         1 PKA       0.117000
     42 H15          4.0400     0.5840    -0.1840 ha         1 PKA       0.125000
     43 H23          3.7840    -3.2160    -2.1510 ha         1 PKA       0.131000
     44 H20          1.4120    -1.6150     1.9260 ha         1 PKA       0.122000
     45 H21          2.5070    -3.8440     1.9230 ha         1 PKA       0.120000
     46 H22          3.7040    -4.6470    -0.1120 ha         1 PKA       0.119000
@<TRIPOS>BOND
     1     1     2 1   
     2     1    26 1   
     3     1    27 1   
     4     1    28 1   
     5     2     3 1   
     6     2    29 1   
     7     2    30 1   
     8     3     4 1   
     9     3     5 1   
    10     3    31 1   
    11     4    32 1   
    12     4    33 1   
    13     4    34 1   
    14     5     6 1   
    15     5     7 1   
    16     6    35 1   
    17     6    36 1   
    18     6    37 1   
    19     7     8 2   
    20     7     9 1   
    21     9    10 ar  
    22     9    12 ar  
    23    10    11 ar  
    24    11    15 ar  
    25    11    19 1   
    26    12    13 ar  
    27    12    38 1   
    28    13    14 ar  
    29    13    15 ar  
    30    14    16 ar  
    31    14    39 1   
    32    15    18 ar  
    33    16    17 ar  
    34    16    40 1   
    35    17    18 ar  
    36    17    41 1   
    37    18    42 1   
    38    19    20 ar  
    39    19    22 ar  
    40    20    21 ar  
    41    20    25 1   
    42    21    24 ar  
    43    21    43 1   
    44    22    23 ar  
    45    22    44 1   
    46    23    24 ar  
    47    23    45 1   
    48    24    46 1   
@<TRIPOS>SUBSTRUCTURE
     1 PKA         1 TEMP              0 ****  ****    0 ROOT
