@<TRIPOS>MOLECULE
PKA
   46    48     1     0     0
SMALL
bcc


@<TRIPOS>ATOM
      1 C1          -3.7920    -2.0780    -0.8000 c3         1 PKA      -0.092100
      2 C2          -4.5610    -1.4470     0.3520 c3         1 PKA      -0.084400
      3 C3          -4.3440     0.0620     0.4590 c3         1 PKA       0.105700
      4 C4          -5.2010     0.7040     1.5440 c3         1 PKA      -0.105100
      5 N5          -2.9230     0.3640     0.6440 n          1 PKA      -0.456800
      6 C6          -2.2510    -0.2950     1.7490 c3         1 PKA       0.101300
      7 C7          -2.3200     1.2580    -0.1580 c          1 PKA       0.587600
      8 O8          -2.9190     1.9870    -0.9420 o          1 PKA      -0.603100
      9 C9          -0.8220     1.3390    -0.1010 ca         1 PKA       0.347800
     10 N18         -0.1490     0.1700    -0.1690 nb         1 PKA      -0.650000
     11 C17          1.1550     0.1810    -0.1940 cp         1 PKA       0.490800
     12 C10         -0.2010     2.5550    -0.0740 ca         1 PKA      -0.170300
     13 C11          1.2080     2.6020    -0.0490 ca         1 PKA      -0.024000
     14 C12          1.9230     3.8190     0.0330 ca         1 PKA      -0.117000
     15 C16          1.9190     1.3790    -0.1000 ca         1 PKA      -0.130300
     16 C13          3.2900     3.8090     0.0770 ca         1 PKA      -0.111000
     17 C14          3.9980     2.5900     0.0470 ca         1 PKA      -0.124000
     18 C15          3.3300     1.3990    -0.0410 ca         1 PKA      -0.097000
     19 C19          1.8160    -1.1460    -0.2720 cp         1 PKA      -0.138500
     20 C24          2.5100    -1.5710    -1.4010 ca         1 PKA       0.043400
     21 C23          3.1040    -2.8230    -1.4580 ca         1 PKA      -0.126000
     22 C20          1.7150    -2.0230     0.8050 ca         1 PKA      -0.094000
     23 C21          2.3060    -3.2760     0.7650 ca         1 PKA      -0.131000
     24 C22          3.0030    -3.6740    -0.3680 ca         1 PKA      -0.113000
     25 CL           2.6170    -0.5350    -2.7860 cl         1 PKA      -0.098400
     26 H1C         -2.7160    -1.9230    -0.7040 hc         1 PKA       0.038700
     27 H1A         -3.9690    -3.1520    -0.8460 hc         1 PKA       0.038700
     28 H1B         -4.1000    -1.6490    -1.7560 hc         1 PKA       0.038700
     29 H2A         -5.6320    -1.6140     0.2110 hc         1 PKA       0.040200
     30 H2B         -4.3040    -1.9400     1.2940 hc         1 PKA       0.040200
     31 H3          -4.6300     0.5040    -0.4950 h1         1 PKA       0.082700
     32 H4C         -4.9620     0.3300     2.5400 hc         1 PKA       0.040367
     33 H4A         -5.0740     1.7870     1.5490 hc         1 PKA       0.040367
     34 H4B         -6.2550     0.4910     1.3620 hc         1 PKA       0.040367
     35 H6A         -1.8600    -1.2760     1.4790 h1         1 PKA       0.038033
     36 H6B         -1.4310     0.3090     2.1270 h1         1 PKA       0.038033
     37 H6C         -2.9550    -0.4180     2.5700 h1         1 PKA       0.038033
     38 H10         -0.7760     3.4720    -0.0480 ha         1 PKA       0.158000
     39 H12          1.3750     4.7520     0.0670 ha         1 PKA       0.139000
     40 H13          3.8370     4.7400     0.1430 ha         1 PKA       0.135000
     41 H14          5.0780     2.5990     0.0940 ha         1 PKA       0.135000
     42 H15          3.8870     0.4710    -0.0510 ha         1 PKA       0.143000
     43 H23          3.6340    -3.1320    -2.3490 ha         1 PKA       0.149000
     44 H20          1.1710    -1.7080     1.6860 ha         1 PKA       0.140000
     45 H21          2.2210    -3.9410     1.6140 ha         1 PKA       0.138000
     46 H22          3.4680    -4.6500    -0.4100 ha         1 PKA       0.137000
@<TRIPOS>BOND
     1     1     2 1   
     2     1    26 1   
     3     1    27 1   
     4     1    28 1   
     5     2     3 1   
     6     2    29 1   
     7     2    30 1   
     8     3     4 1   
     9     3     5 1   
    10     3    31 1   
    11     4    32 1   
    12     4    33 1   
    13     4    34 1   
    14     5     6 1   
    15     5     7 1   
    16     6    35 1   
    17     6    36 1   
    18     6    37 1   
    19     7     8 2   
    20     7     9 1   
    21     9    10 ar  
    22     9    12 ar  
    23    10    11 ar  
    24    11    15 ar  
    25    11    19 1   
    26    12    13 ar  
    27    12    38 1   
    28    13    14 ar  
    29    13    15 ar  
    30    14    16 ar  
    31    14    39 1   
    32    15    18 ar  
    33    16    17 ar  
    34    16    40 1   
    35    17    18 ar  
    36    17    41 1   
    37    18    42 1   
    38    19    20 ar  
    39    19    22 ar  
    40    20    21 ar  
    41    20    25 1   
    42    21    24 ar  
    43    21    43 1   
    44    22    23 ar  
    45    22    44 1   
    46    23    24 ar  
    47    23    45 1   
    48    24    46 1   
@<TRIPOS>SUBSTRUCTURE
     1 PKA         1 TEMP              0 ****  ****    0 ROOT
