@<TRIPOS>MOLECULE
PKC
   29    29     1     0     0
SMALL
No Charge or Current Charge


@<TRIPOS>ATOM
      1 N1          -0.6670     1.6060    -0.6090 n8         1 PKC      -0.995200
      2 C1          -0.8990     0.2090    -0.1470 c3         1 PKC       0.133500
      3 C2          -2.3740    -0.0090     0.3380 c3         1 PKC       0.130300
      4 O1          -2.6170    -1.3700     0.7060 oh         1 PKC      -0.634000
      5 C3           0.1510    -0.1810     0.9340 c3         1 PKC      -0.020100
      6 C4           1.5990    -0.1000     0.4530 ca         1 PKC      -0.065300
      7 C5           2.4780     0.8670     0.9820 ca         1 PKC      -0.099500
      8 C6           2.0780    -1.0100    -0.5120 ca         1 PKC      -0.099500
      9 C7           3.8140     0.9280     0.5470 ca         1 PKC      -0.112000
     10 C8           3.4130    -0.9490    -0.9470 ca         1 PKC      -0.112000
     11 C9           4.2820     0.0200    -0.4180 ca         1 PKC      -0.112000
     12 C10         -3.4510     0.3230    -0.7330 c3         1 PKC       0.111800
     13 N2          -4.7600    -0.3040    -0.4010 n8         1 PKC      -0.979200
     14 H1          -1.3680     1.8590    -1.3130 hn         1 PKC       0.394500
     15 H2          -0.7420    -0.4490    -1.0150 h1         1 PKC       0.059700
     16 H3          -2.5540     0.6390     1.2080 h1         1 PKC       0.066700
     17 H4          -3.5530    -1.4860     0.3980 ho         1 PKC       0.442000
     18 H5           0.0040     0.4500     1.8190 hc         1 PKC       0.055200
     19 H6          -0.0440    -1.2070     1.2680 hc         1 PKC       0.055200
     20 H7           2.1260     1.5740     1.7300 ha         1 PKC       0.108000
     21 H8           1.4140    -1.7670    -0.9240 ha         1 PKC       0.108000
     22 H9           4.4850     1.6780     0.9590 ha         1 PKC       0.109000
     23 H10          3.7750    -1.6540    -1.6920 ha         1 PKC       0.109000
     24 H11          5.3150     0.0670    -0.7540 ha         1 PKC       0.109000
     25 H12         -3.5820     1.4100    -0.8230 h1         1 PKC       0.027700
     26 H13         -3.1240    -0.0690    -1.7060 h1         1 PKC       0.027700
     27 H14         -5.1830     0.1960     0.3920 hn         1 PKC       0.394000
     28 H15         -0.8470     2.2570     0.1640 hn         1 PKC       0.394500
     29 H16         -5.4220    -0.1210    -1.1670 hn         1 PKC       0.394000
@<TRIPOS>BOND
     1     1     2 1   
     2     1    14 1   
     3     1    28 1   
     4     2     3 1   
     5     2     5 1   
     6     2    15 1   
     7     3     4 1   
     8     3    12 1   
     9     3    16 1   
    10     4    17 1   
    11     5     6 1   
    12     5    18 1   
    13     5    19 1   
    14     6     7 ar  
    15     6     8 ar  
    16     7     9 ar  
    17     7    20 1   
    18     8    10 ar  
    19     8    21 1   
    20     9    11 ar  
    21     9    22 1   
    22    10    11 ar  
    23    10    23 1   
    24    11    24 1   
    25    12    13 1   
    26    12    25 1   
    27    12    26 1   
    28    13    27 1   
    29    13    29 1   
@<TRIPOS>SUBSTRUCTURE
     1 PKC         1 TEMP              0 ****  ****    0 ROOT
