@<TRIPOS>MOLECULE
PKC
   29    29     1     0     0
SMALL
abcg2


@<TRIPOS>ATOM
      1 N1          -0.7070     1.6770    -0.3000 n8         1 PKC      -0.995200
      2 C1          -0.9270     0.2570    -0.0860 c3         1 PKC       0.133500
      3 C2          -2.3700    -0.1170     0.3190 c3         1 PKC       0.130300
      4 O1          -2.4980    -1.5030     0.5570 oh         1 PKC      -0.634000
      5 C3           0.0820    -0.2440     0.9550 c3         1 PKC      -0.020100
      6 C4           1.4980    -0.1550     0.4660 ca         1 PKC      -0.065300
      7 C5           2.2960     0.9510     0.7450 ca         1 PKC      -0.099500
      8 C6           2.0370    -1.1790    -0.3120 ca         1 PKC      -0.099500
      9 C7           3.5980     1.0320     0.2660 ca         1 PKC      -0.112000
     10 C8           3.3350    -1.1010    -0.7990 ca         1 PKC      -0.112000
     11 C9           4.1210     0.0070    -0.5110 ca         1 PKC      -0.112000
     12 C10         -3.3920     0.3670    -0.7070 c3         1 PKC       0.111800
     13 N2          -4.7480     0.0100    -0.3220 n8         1 PKC      -0.979200
     14 H1          -1.2670     2.0200    -1.0690 hn         1 PKC       0.394500
     15 H2          -0.7110    -0.2480    -1.0370 h1         1 PKC       0.059700
     16 H3          -2.5880     0.3650     1.2810 h1         1 PKC       0.066700
     17 H4          -2.4150    -1.9620    -0.2860 ho         1 PKC       0.442000
     18 H5          -0.0370     0.3450     1.8710 hc         1 PKC       0.055200
     19 H6          -0.1510    -1.2780     1.2150 hc         1 PKC       0.055200
     20 H7           1.8960     1.7560     1.3490 ha         1 PKC       0.108000
     21 H8           1.4320    -2.0500    -0.5390 ha         1 PKC       0.108000
     22 H9           4.2050     1.8980     0.5000 ha         1 PKC       0.109000
     23 H10          3.7340    -1.9090    -1.3990 ha         1 PKC       0.109000
     24 H11          5.1350     0.0700    -0.8860 ha         1 PKC       0.109000
     25 H12         -3.2600     1.4450    -0.8570 h1         1 PKC       0.027700
     26 H13         -3.1710    -0.1030    -1.6730 h1         1 PKC       0.027700
     27 H14         -5.0020     0.5220     0.5150 hn         1 PKC       0.394000
     28 H15         -0.9920     2.2010     0.5190 hn         1 PKC       0.394500
     29 H16         -5.3870     0.3330    -1.0370 hn         1 PKC       0.394000
@<TRIPOS>BOND
     1     1     2 1   
     2     1    14 1   
     3     1    28 1   
     4     2     3 1   
     5     2     5 1   
     6     2    15 1   
     7     3     4 1   
     8     3    12 1   
     9     3    16 1   
    10     4    17 1   
    11     5     6 1   
    12     5    18 1   
    13     5    19 1   
    14     6     7 ar  
    15     6     8 ar  
    16     7     9 ar  
    17     7    20 1   
    18     8    10 ar  
    19     8    21 1   
    20     9    11 ar  
    21     9    22 1   
    22    10    11 ar  
    23    10    23 1   
    24    11    24 1   
    25    12    13 1   
    26    12    25 1   
    27    12    26 1   
    28    13    27 1   
    29    13    29 1   
@<TRIPOS>SUBSTRUCTURE
     1 PKC         1 TEMP              0 ****  ****    0 ROOT
