@<TRIPOS>MOLECULE
PKD
   26    27     1     0     0
SMALL
bcc


@<TRIPOS>ATOM
      1 C2          13.7240    22.5470   -25.1380 c          1 PKD       0.940600
      2 O1          13.4430    21.5330   -25.7960 o          1 PKD      -0.815800
      3 O3          12.9590    23.4340   -24.7180 o          1 PKD      -0.815800
      4 C11         17.0700    20.8430   -27.3820 ca         1 PKD      -0.122600
      5 C12         18.1610    21.1190   -28.2000 ca         1 PKD      -0.085000
      6 C13         18.7940    20.1010   -28.8950 ca         1 PKD      -0.141000
      7 C14         18.3030    18.8080   -28.7940 ca         1 PKD       0.029400
      8 C16         17.2010    18.5160   -28.0060 ca         1 PKD      -0.141000
      9 C17         16.5920    19.5400   -27.2970 ca         1 PKD      -0.085000
     10 C4          15.2050    22.7370   -24.7150 c5         1 PKD      -0.041300
     11 C5          15.3390    22.4710   -23.2090 c5         1 PKD       0.055700
     12 C7          16.7860    20.8780   -24.5170 c5         1 PKD       0.225100
     13 N8          16.1120    21.8180   -25.3840 n          1 PKD      -0.440800
     14 O10         15.9820    22.9360   -27.3410 o          1 PKD      -0.587100
     15 S6          17.0050    21.7940   -22.9660 ss         1 PKD      -0.458200
     16 CL15        19.0780    17.5340   -29.6730 cl         1 PKD      -0.141400
     17 H2          18.5330    22.1310   -28.2880 ha         1 PKD       0.156500
     18 H3          19.6530    20.3160   -29.5150 ha         1 PKD       0.138500
     19 H4          16.8170    17.5070   -27.9460 ha         1 PKD       0.138500
     20 H5          15.7230    19.3140   -26.6910 ha         1 PKD       0.156500
     21 H6          15.5170    23.7640   -24.9220 h1         1 PKD       0.068700
     22 H7          15.2170    23.3800   -22.6250 h1         1 PKD       0.074200
     23 H8          14.6090    21.7370   -22.8620 h1         1 PKD       0.074200
     24 H9          16.1850    19.9850   -24.3290 h2         1 PKD       0.060200
     25 H10         17.7560    20.5780   -24.9070 h2         1 PKD       0.060200
     26 C9          16.3490    21.9610   -26.7000 c          1 PKD       0.696700
@<TRIPOS>BOND
     1     1     2 1   
     2     1     3 1   
     3     1    10 1   
     4     4     5 ar  
     5     4     9 ar  
     6     4    26 1   
     7     5     6 ar  
     8     5    17 1   
     9     6     7 ar  
    10     6    18 1   
    11     7     8 ar  
    12     7    16 1   
    13     8     9 ar  
    14     8    19 1   
    15     9    20 1   
    16    10    11 1   
    17    10    13 1   
    18    10    21 1   
    19    11    15 1   
    20    11    22 1   
    21    11    23 1   
    22    12    13 1   
    23    12    15 1   
    24    12    24 1   
    25    12    25 1   
    26    13    26 1   
    27    14    26 2   
@<TRIPOS>SUBSTRUCTURE
     1 PKD         1 TEMP              0 ****  ****    0 ROOT
