@<TRIPOS>MOLECULE
PKD
   26    27     1     0     0
SMALL
No Charge or Current Charge


@<TRIPOS>ATOM
      1 C2          13.7540    22.9570   -25.1660 c          1 PKD       0.730000
      2 O1          13.1160    21.9850   -25.5490 o          1 PKD      -0.710500
      3 O3          13.3050    24.0930   -25.2410 o          1 PKD      -0.710500
      4 C11         17.0960    20.8080   -27.4100 ca         1 PKD      -0.122600
      5 C12         18.0100    21.1130   -28.4440 ca         1 PKD      -0.067000
      6 C13         18.6440    20.0860   -29.1650 ca         1 PKD      -0.123000
      7 C14         18.3590    18.7440   -28.8740 ca         1 PKD       0.121000
      8 C16         17.4320    18.4260   -27.8700 ca         1 PKD      -0.123000
      9 C17         16.7980    19.4500   -27.1450 ca         1 PKD      -0.067000
     10 C4          15.1930    22.7570   -24.6020 c5         1 PKD      -0.041300
     11 C5          15.0620    22.2270   -23.1540 c5         1 PKD       0.103600
     12 C7          16.8660    20.8940   -24.4180 c5         1 PKD       0.273000
     13 N8          16.0390    21.7360   -25.3180 n          1 PKD      -0.373800
     14 O10         16.1520    22.9900   -27.2360 o          1 PKD      -0.587100
     15 S6          16.7910    21.7220   -22.7620 ss         1 PKD      -0.554000
     16 Cl15        19.1480    17.4600   -29.7800 cl         1 PKD      -0.233000
     17 H2          18.2410    22.1500   -28.6810 ha         1 PKD       0.138500
     18 H3          19.3540    20.3310   -29.9510 ha         1 PKD       0.120500
     19 H4          17.1980    17.3850   -27.6600 ha         1 PKD       0.120500
     20 H5          16.0520    19.1790   -26.4010 ha         1 PKD       0.138500
     21 H6          15.6970    23.7320   -24.6070 h1         1 PKD       0.068700
     22 H7          14.7010    22.9940   -22.4560 h1         1 PKD       0.074200
     23 H8          14.3950    21.3550   -23.0960 h1         1 PKD       0.074200
     24 H9          16.3950    19.9050   -24.3670 h2         1 PKD       0.060200
     25 H10         17.8940    20.8630   -24.8010 h2         1 PKD       0.060200
     26 C9          16.4210    21.9400   -26.6620 c          1 PKD       0.629700
@<TRIPOS>BOND
     1     1     2 1   
     2     1     3 1   
     3     1    10 1   
     4     4     5 ar  
     5     4     9 ar  
     6     4    26 1   
     7     5     6 ar  
     8     5    17 1   
     9     6     7 ar  
    10     6    18 1   
    11     7     8 ar  
    12     7    16 1   
    13     8     9 ar  
    14     8    19 1   
    15     9    20 1   
    16    10    11 1   
    17    10    13 1   
    18    10    21 1   
    19    11    15 1   
    20    11    22 1   
    21    11    23 1   
    22    12    13 1   
    23    12    15 1   
    24    12    24 1   
    25    12    25 1   
    26    13    26 1   
    27    14    26 2   
@<TRIPOS>SUBSTRUCTURE
     1 PKD         1 TEMP              0 ****  ****    0 ROOT
