@<TRIPOS>MOLECULE
PKE
   52    55     1     0     0
SMALL
No Charge or Current Charge


@<TRIPOS>ATOM
      1 C2          -1.2700    -3.7070    19.0230 ca         1 PKE       0.418900
      2 C9           0.2530    -7.0210    21.2360 c3         1 PKE       0.280100
      3 C10         -1.1680    -7.5820    21.2140 ca         1 PKE      -0.068300
      4 C11         -1.6400    -8.3120    20.1040 ca         1 PKE      -0.059000
      5 C12         -2.9580    -8.7930    20.1280 ca         1 PKE      -0.153000
      6 C13         -3.7580    -8.5370    21.2510 ca         1 PKE       0.341900
      7 C15         -2.0470    -7.3970    22.3100 ca         1 PKE       0.546900
      8 C20         -2.2120    -8.7070    25.3050 c3         1 PKE      -0.369100
      9 C22         -3.4440    -3.3770    20.3340 ca         1 PKE       0.286000
     10 C24         -5.0000    -5.0320    21.2820 ca         1 PKE      -0.127000
     11 C27         -5.1240    -2.6950    21.9430 ca         1 PKE      -0.127300
     12 N1          -0.8780    -4.8030    19.6930 nb         1 PKE      -0.306000
     13 N3          -0.6520    -3.1360    17.9770 nb         1 PKE      -0.278000
     14 C4           0.4630    -3.7470    17.5350 ca         1 PKE       0.173900
     15 C5           0.9500    -4.9070    18.1530 ca         1 PKE      -0.342000
     16 C6           0.2370    -5.4000    19.2460 ca         1 PKE       0.409900
     17 N7           0.7000    -6.5200    19.9160 nu         1 PKE      -0.934100
     18 N8          -2.3960    -3.0360    19.4700 nu         1 PKE      -0.948900
     19 N14         -3.3160    -7.8490    22.3240 nb         1 PKE      -0.704000
     20 N16         -1.6900    -6.6950    23.4550 nh         1 PKE      -0.732200
     21 S17         -0.9500    -7.5900    24.7200 s6         1 PKE       1.207100
     22 C18         -2.4290    -5.4770    23.8330 c3         1 PKE       0.191100
     23 O19         -0.6350    -6.6440    25.7950 o          1 PKE      -0.536500
     24 O21          0.1190    -8.3820    24.1050 o          1 PKE      -0.536500
     25 C23         -4.0630    -2.3560    21.0900 ca         1 PKE      -0.095000
     26 C25         -3.9210    -4.7110    20.4290 ca         1 PKE      -0.083000
     27 C26         -5.5660    -3.9950    22.0270 ca         1 PKE      -0.051000
     28 C28         -5.9520    -1.8110    22.8710 c5         1 PKE      -0.119100
     29 C29         -6.9610    -2.8150    23.5160 c          1 PKE       0.563000
     30 N30         -6.6160    -4.0200    22.9360 ns         1 PKE      -0.149000
     31 O31         -7.8520    -2.6260    24.3360 o          1 PKE      -0.526000
     32 H1           0.9260    -7.8210    21.5750 h1         1 PKE       0.076200
     33 H2           0.3280    -6.2100    21.9740 h1         1 PKE       0.076200
     34 H3          -1.0040    -8.4950    19.2410 ha         1 PKE       0.131000
     35 H4          -3.3610    -9.3540    19.2900 ha         1 PKE       0.129000
     36 H5          -4.7860    -8.8940    21.2930 h4         1 PKE       0.022100
     37 H6          -1.7910    -9.2640    26.1480 h1         1 PKE       0.105033
     38 H7          -3.0690    -8.1020    25.6130 h1         1 PKE       0.105033
     39 H8          -2.4720    -9.3760    24.4790 h1         1 PKE       0.105033
     40 H9          -5.3760    -6.0500    21.3580 ha         1 PKE       0.126000
     41 H10          0.9710    -3.2980    16.6830 h4         1 PKE       0.019100
     42 H11          1.8550    -5.3900    17.7970 ha         1 PKE       0.132000
     43 H12          1.5670    -6.9120    19.5460 hn         1 PKE       0.500000
     44 H13         -2.4260    -2.0730    19.1370 hn         1 PKE       0.515000
     45 H14         -1.7960    -4.7970    24.4180 h1         1 PKE       0.058367
     46 H15         -2.7470    -4.9310    22.9370 h1         1 PKE       0.058367
     47 H16         -3.3210    -5.7280    24.4240 h1         1 PKE       0.058367
     48 H17         -3.7190    -1.3280    21.0240 ha         1 PKE       0.123000
     49 H18         -3.4670    -5.4940    19.8310 ha         1 PKE       0.133000
     50 H19         -5.3740    -1.3280    23.6650 hc         1 PKE       0.091200
     51 H20         -6.5140    -1.0240    22.3580 hc         1 PKE       0.091200
     52 H21         -7.1050    -4.8770    23.1610 hn         1 PKE       0.172000
@<TRIPOS>BOND
     1     1    12 ar  
     2     1    13 ar  
     3     1    18 1   
     4     2     3 1   
     5     2    17 1   
     6     2    32 1   
     7     2    33 1   
     8     3     4 ar  
     9     3     7 ar  
    10     4     5 ar  
    11     4    34 1   
    12     5     6 ar  
    13     5    35 1   
    14     6    19 ar  
    15     6    36 1   
    16     7    19 ar  
    17     7    20 1   
    18     8    21 1   
    19     8    37 1   
    20     8    38 1   
    21     8    39 1   
    22     9    18 1   
    23     9    25 ar  
    24     9    26 ar  
    25    10    26 ar  
    26    10    27 ar  
    27    10    40 1   
    28    11    25 ar  
    29    11    27 ar  
    30    11    28 1   
    31    12    16 ar  
    32    13    14 ar  
    33    14    15 ar  
    34    14    41 1   
    35    15    16 ar  
    36    15    42 1   
    37    16    17 1   
    38    17    43 1   
    39    18    44 1   
    40    20    21 1   
    41    20    22 1   
    42    21    23 2   
    43    21    24 2   
    44    22    45 1   
    45    22    46 1   
    46    22    47 1   
    47    25    48 1   
    48    26    49 1   
    49    27    30 1   
    50    28    29 1   
    51    28    50 1   
    52    28    51 1   
    53    29    30 1   
    54    29    31 2   
    55    30    52 1   
@<TRIPOS>SUBSTRUCTURE
     1 PKE         1 TEMP              0 ****  ****    0 ROOT
