@<TRIPOS>MOLECULE
PKE
   52    55     1     0     0
SMALL
bcc


@<TRIPOS>ATOM
      1 C2          -1.2740    -3.6550    18.9620 ca         1 PKE       0.944900
      2 C9           0.0710    -6.7650    21.2400 c3         1 PKE       0.280100
      3 C10         -1.2780    -7.4340    21.1780 ca         1 PKE      -0.133600
      4 C11         -1.7410    -8.0860    20.0440 ca         1 PKE      -0.077000
      5 C12         -2.9850    -8.6950    20.0640 ca         1 PKE      -0.236300
      6 C13         -3.7350    -8.6340    21.2280 ca         1 PKE       0.407200
      7 C15         -2.1180    -7.4400    22.2890 ca         1 PKE       0.612200
      8 C20         -2.4360    -8.3250    25.5960 c3         1 PKE      -0.258300
      9 C22         -3.3870    -3.4370    20.2560 ca         1 PKE       0.147600
     10 C24         -4.8750    -5.1220    21.1640 ca         1 PKE      -0.145000
     11 C27         -4.9630    -2.8400    21.9610 ca         1 PKE      -0.127300
     12 N1          -0.8900    -4.7220    19.6560 nb         1 PKE      -0.832000
     13 N3          -0.6380    -3.1100    17.9240 nb         1 PKE      -0.804000
     14 C4           0.4740    -3.7390    17.5460 ca         1 PKE       0.502200
     15 C5           0.9590    -4.8700    18.1530 ca         1 PKE      -0.490600
     16 C6           0.2200    -5.3360    19.2590 ca         1 PKE       0.738200
     17 N7           0.6200    -6.4200    19.9550 nu         1 PKE      -0.878900
     18 N8          -2.4180    -3.0180    19.3330 nu         1 PKE      -0.755300
     19 N14         -3.3070    -8.0140    22.3190 nb         1 PKE      -0.704000
     20 N16         -1.6970    -6.7530    23.4630 nh         1 PKE      -0.732200
     21 S17         -1.0570    -7.6850    24.6740 s6         1 PKE       1.237900
     22 C18         -2.4390    -5.5460    23.8130 c3         1 PKE       0.191100
     23 O19         -0.2970    -6.8070    25.5490 o          1 PKE      -0.607300
     24 O21         -0.3820    -8.7920    24.0140 o          1 PKE      -0.607300
     25 C23         -3.9470    -2.4750    21.1040 ca         1 PKE      -0.113000
     26 C25         -3.8600    -4.7480    20.2910 ca         1 PKE      -0.101000
     27 C26         -5.4140    -4.1560    21.9910 ca         1 PKE       0.041600
     28 C28         -5.7530    -2.0540    22.9580 c5         1 PKE      -0.119100
     29 C29         -6.6960    -3.0910    23.5570 c          1 PKE       0.705500
     30 N30         -6.4270    -4.2740    22.9360 ns         1 PKE      -0.475100
     31 O31         -7.5310    -2.9150    24.4190 o          1 PKE      -0.601500
     32 H1           0.7790    -7.4420    21.7210 h1         1 PKE       0.076200
     33 H2           0.0100    -5.8810    21.8780 h1         1 PKE       0.076200
     34 H3          -1.1330    -8.1120    19.1490 ha         1 PKE       0.149000
     35 H4          -3.3690    -9.2090    19.1930 ha         1 PKE       0.147000
     36 H5          -4.7140    -9.0960    21.2820 h4         1 PKE       0.022100
     37 H6          -2.0440    -8.9490    26.3990 h1         1 PKE       0.105033
     38 H7          -3.0020    -7.4970    26.0180 h1         1 PKE       0.105033
     39 H8          -3.0670    -8.9120    24.9330 h1         1 PKE       0.105033
     40 H9          -5.2360    -6.1410    21.1780 ha         1 PKE       0.144000
     41 H10          1.0050    -3.3060    16.7050 h4         1 PKE       0.019100
     42 H11          1.8650    -5.3560    17.8200 ha         1 PKE       0.150000
     43 H12          1.4960    -6.8400    19.6950 hn         1 PKE       0.444800
     44 H13         -2.5760    -2.1350    18.8730 hn         1 PKE       0.459800
     45 H14         -1.9630    -5.0460    24.6530 h1         1 PKE       0.058367
     46 H15         -2.4100    -4.8710    22.9600 h1         1 PKE       0.058367
     47 H16         -3.4830    -5.7510    24.0590 h1         1 PKE       0.058367
     48 H17         -3.5850    -1.4540    21.0760 ha         1 PKE       0.141000
     49 H18         -3.4420    -5.4900    19.6260 ha         1 PKE       0.151000
     50 H19         -5.1410    -1.6080    23.7450 hc         1 PKE       0.091200
     51 H20         -6.3320    -1.2440    22.5080 hc         1 PKE       0.091200
     52 H21         -6.9170    -5.1310    23.1420 hn         1 PKE       0.338500
@<TRIPOS>BOND
     1     1    12 ar  
     2     1    13 ar  
     3     1    18 1   
     4     2     3 1   
     5     2    17 1   
     6     2    32 1   
     7     2    33 1   
     8     3     4 ar  
     9     3     7 ar  
    10     4     5 ar  
    11     4    34 1   
    12     5     6 ar  
    13     5    35 1   
    14     6    19 ar  
    15     6    36 1   
    16     7    19 ar  
    17     7    20 1   
    18     8    21 1   
    19     8    37 1   
    20     8    38 1   
    21     8    39 1   
    22     9    18 1   
    23     9    25 ar  
    24     9    26 ar  
    25    10    26 ar  
    26    10    27 ar  
    27    10    40 1   
    28    11    25 ar  
    29    11    27 ar  
    30    11    28 1   
    31    12    16 ar  
    32    13    14 ar  
    33    14    15 ar  
    34    14    41 1   
    35    15    16 ar  
    36    15    42 1   
    37    16    17 1   
    38    17    43 1   
    39    18    44 1   
    40    20    21 1   
    41    20    22 1   
    42    21    23 2   
    43    21    24 2   
    44    22    45 1   
    45    22    46 1   
    46    22    47 1   
    47    25    48 1   
    48    26    49 1   
    49    27    30 1   
    50    28    29 1   
    51    28    50 1   
    52    28    51 1   
    53    29    30 1   
    54    29    31 2   
    55    30    52 1   
@<TRIPOS>SUBSTRUCTURE
     1 PKE         1 TEMP              0 ****  ****    0 ROOT
