@<TRIPOS>MOLECULE
PKF
  103   106     1     0     0
SMALL
No Charge or Current Charge


@<TRIPOS>ATOM
      1 C1           2.1900     2.4330    11.1890 c          1 PKF       0.652100
      2 O1           2.8100     3.2570    11.8460 o          1 PKF      -0.541000
      3 O2           1.6210     2.6780     9.9700 os         1 PKF      -0.465100
      4 C2           1.7480     4.0020     9.4300 c3         1 PKF       0.230900
      5 C3           1.0670     4.0440     8.0670 ca         1 PKF      -0.088300
      6 C4           1.5890     3.2970     6.9920 ca         1 PKF      -0.088000
      7 C5          -0.0750     4.8440     7.8620 ca         1 PKF      -0.088000
      8 C6           0.9830     3.3570     5.7250 ca         1 PKF      -0.119000
      9 C7          -0.6800     4.9050     6.5940 ca         1 PKF      -0.119000
     10 C8          -0.1490     4.1650     5.5240 ca         1 PKF      -0.112000
     11 N1           1.9920     1.1070    11.5980 n          1 PKF      -0.394800
     12 C9           2.5080     0.5840    12.8780 c5         1 PKF       0.121000
     13 C10          1.2300     0.1060    10.8020 c5         1 PKF       0.045700
     14 C11          1.5820    -1.2100    11.5610 c5         1 PKF      -0.081400
     15 C12          1.6980    -0.7290    13.0310 c5         1 PKF      -0.097400
     16 C13         -0.3170     0.3350    10.8110 c          1 PKF       0.604100
     17 O3          -0.9680     1.0200    11.5920 o          1 PKF      -0.595100
     18 N2          -0.8790    -0.3510     9.7550 ns         1 PKF      -0.479900
     19 C14         -2.3370     0.7360     6.2760 c3         1 PKF      -0.099400
     20 C15         -2.3130    -0.3250     9.3870 c3         1 PKF       0.031700
     21 C16         -2.7360     1.0640     8.8060 c3         1 PKF      -0.091400
     22 C17         -1.9920     1.5520     7.5330 c3         1 PKF      -0.088400
     23 C18         -2.6700    -1.5820     8.5230 c          1 PKF       0.584100
     24 O4          -1.9200    -2.5440     8.4370 o          1 PKF      -0.586100
     25 C19         -1.8270     1.3090     4.9570 c3         1 PKF       0.097600
     26 N3          -2.4140     0.4960     3.8470 nz         1 PKF      -1.050000
     27 N20         -4.3080    -4.0920     4.6640 n7         1 PKF      -1.008500
     28 O5          -2.3360    -4.2260     5.8970 o          1 PKF      -0.825000
     29 O6          -2.7650    -2.0950     4.6230 o          1 PKF      -0.825000
     30 C21         -4.9480    -4.2620     2.1670 c          1 PKF       0.593100
     31 C22         -6.1120     0.3740     6.4230 ca         1 PKF      -0.099000
     32 C23         -6.1280     1.6040     5.7420 ca         1 PKF      -0.121000
     33 C24         -5.9420     1.6410     4.3510 ca         1 PKF      -0.121000
     34 N4          -3.8820    -1.5430     7.8520 ns         1 PKF      -0.483900
     35 C25         -4.4150    -2.5820     6.9090 c3         1 PKF      -0.235300
     36 C26         -5.8470    -2.1630     6.4600 c3         1 PKF      -0.022100
     37 C27         -5.8930    -0.8270     5.7180 ca         1 PKF      -0.065300
     38 C28         -3.9650    -4.6800     3.3370 c3         1 PKF       0.194500
     39 C29         -3.9410    -6.2140     3.5200 c3         1 PKF      -0.111100
     40 O7          -5.9820    -4.8900     1.9480 o          1 PKF      -0.593100
     41 C30         -5.7310    -0.7830     4.3200 ca         1 PKF      -0.099000
     42 C31         -5.7540     0.4460     3.6380 ca         1 PKF      -0.121000
     43 P1          -3.2920    -3.1670     5.5070 p5         1 PKF       1.431300
     44 C32         -6.4240    -4.1740    -3.1900 c3         1 PKF       0.151900
     45 O8          -6.3540    -3.3990    -1.9780 os         1 PKF      -0.440100
     46 N5          -4.6280    -3.1660     1.3300 n          1 PKF      -0.411800
     47 C33         -3.4740    -2.2630     1.5180 c5         1 PKF       0.111000
     48 C34         -5.4900    -2.7760     0.1770 c5         1 PKF       0.052700
     49 C35         -4.9210    -1.3720    -0.1880 c5         1 PKF      -0.082400
     50 C36         -3.4180    -1.5330     0.1520 c5         1 PKF      -0.099400
     51 C37         -5.3940    -3.7290    -1.0530 c          1 PKF       0.584100
     52 O9          -4.6000    -4.6530    -1.1980 o          1 PKF      -0.482000
     53 H22A         2.8060     4.2730     9.3100 h1         1 PKF       0.058700
     54 H21          1.2860     4.7390    10.1010 h1         1 PKF       0.058700
     55 H4           2.4690     2.6750     7.1390 ha         1 PKF       0.119500
     56 H5          -0.4920     5.4250     8.6820 ha         1 PKF       0.119500
     57 H6           1.3950     2.7820     4.8980 ha         1 PKF       0.111500
     58 H7          -1.5580     5.5280     6.4400 ha         1 PKF       0.111500
     59 H8          -0.6130     4.2180     4.5420 ha         1 PKF       0.105000
     60 H92          2.3340     1.2740    13.7140 h1         1 PKF       0.056200
     61 H91          3.5860     0.3870    12.8050 h1         1 PKF       0.056200
     62 H10          1.5770     0.0720     9.7600 h1         1 PKF       0.062700
     63 H112         2.5380    -1.6160    11.2090 hc         1 PKF       0.065200
     64 H111         0.8320    -2.0000    11.4280 hc         1 PKF       0.065200
     65 H122         0.7100    -0.5340    13.4650 hc         1 PKF       0.065200
     66 H121         2.2000    -1.4560    13.6790 hc         1 PKF       0.065200
     67 H2          -0.2560    -0.9180     9.1910 hn         1 PKF       0.316500
     68 H142        -3.4240     0.6400     6.2060 hc         1 PKF       0.062700
     69 H141        -1.9180    -0.2700     6.3760 hc         1 PKF       0.062700
     70 H15         -2.8890    -0.4640    10.3120 h1         1 PKF       0.101700
     71 H162        -2.5790     1.8180     9.5860 hc         1 PKF       0.056700
     72 H161        -3.8170     1.0730     8.6200 hc         1 PKF       0.056700
     73 H172        -0.9070     1.5440     7.7000 hc         1 PKF       0.065200
     74 H171        -2.2720     2.5980     7.3560 hc         1 PKF       0.065200
     75 H192        -0.7340     1.2490     4.9260 hx         1 PKF       0.090200
     76 H191        -2.1340     2.3550     4.8490 hx         1 PKF       0.090200
     77 H33         -3.4090     0.7080     3.6930 hn         1 PKF       0.510333
     78 H32         -2.4030    -0.5280     4.0730 hn         1 PKF       0.510333
     79 H31A        -1.9330     0.6130     2.9440 hn         1 PKF       0.510333
     80 H20         -3.8750    -4.7480     5.3250 hn         1 PKF       0.480000
     81 H22         -6.2640     0.3580     7.5000 ha         1 PKF       0.115000
     82 H23         -6.2870     2.5280     6.2940 ha         1 PKF       0.103500
     83 H24         -5.9610     2.5930     3.8240 ha         1 PKF       0.104000
     84 H4N1        -4.4220    -0.6950     7.9700 hn         1 PKF       0.307500
     85 H25         -4.5110    -3.5140     7.4780 h1         1 PKF       0.099700
     86 H262        -6.4820    -2.1030     7.3530 hc         1 PKF       0.059200
     87 H261        -6.3040    -2.9490     5.8480 hc         1 PKF       0.059200
     88 H28         -2.9500    -4.3890     3.0370 h1         1 PKF       0.063700
     89 H293        -4.9170    -6.5880     3.8540 hc         1 PKF       0.043367
     90 H292        -3.6930    -6.7060     2.5710 hc         1 PKF       0.043367
     91 H291        -3.1870    -6.5110     4.2580 hc         1 PKF       0.043367
     92 H30         -5.5900    -1.7040     3.7610 ha         1 PKF       0.115000
     93 H31         -5.6330     0.4720     2.5580 ha         1 PKF       0.103500
     94 H323        -7.2310    -3.8020    -3.8340 h1         1 PKF       0.048033
     95 H322        -6.6250    -5.2300    -2.9680 h1         1 PKF       0.048033
     96 H321        -5.4830    -4.1080    -3.7510 h1         1 PKF       0.048033
     97 H332        -2.5360    -2.7940     1.7240 h1         1 PKF       0.046200
     98 H331        -3.6720    -1.5550     2.3310 h1         1 PKF       0.046200
     99 H34         -6.5490    -2.7120     0.4590 h1         1 PKF       0.102700
    100 H352        -5.3810    -0.5930     0.4310 hc         1 PKF       0.062700
    101 H351        -5.0940    -1.0910    -1.2340 hc         1 PKF       0.062700
    102 H362        -2.9030    -2.1420    -0.6000 hc         1 PKF       0.058700
    103 H361        -2.8910    -0.5740     0.2130 hc         1 PKF       0.058700
@<TRIPOS>BOND
     1     1     2 2   
     2     1     3 1   
     3     1    11 1   
     4     3     4 1   
     5     4     5 1   
     6     4    53 1   
     7     4    54 1   
     8     5     6 ar  
     9     5     7 ar  
    10     6     8 ar  
    11     6    55 1   
    12     7     9 ar  
    13     7    56 1   
    14     8    10 ar  
    15     8    57 1   
    16     9    10 ar  
    17     9    58 1   
    18    10    59 1   
    19    11    12 1   
    20    11    13 1   
    21    12    15 1   
    22    12    60 1   
    23    12    61 1   
    24    13    14 1   
    25    13    16 1   
    26    13    62 1   
    27    14    15 1   
    28    14    63 1   
    29    14    64 1   
    30    15    65 1   
    31    15    66 1   
    32    16    17 2   
    33    16    18 1   
    34    18    20 1   
    35    18    67 1   
    36    19    22 1   
    37    19    25 1   
    38    19    68 1   
    39    19    69 1   
    40    20    21 1   
    41    20    23 1   
    42    20    70 1   
    43    21    22 1   
    44    21    71 1   
    45    21    72 1   
    46    22    73 1   
    47    22    74 1   
    48    23    24 2   
    49    23    34 1   
    50    25    26 1   
    51    25    75 1   
    52    25    76 1   
    53    26    77 1   
    54    26    78 1   
    55    26    79 1   
    56    27    38 1   
    57    27    43 1   
    58    27    80 1   
    59    28    43 1   
    60    29    43 1   
    61    30    38 1   
    62    30    40 2   
    63    30    46 1   
    64    31    32 ar  
    65    31    37 ar  
    66    31    81 1   
    67    32    33 ar  
    68    32    82 1   
    69    33    42 ar  
    70    33    83 1   
    71    34    35 1   
    72    34    84 1   
    73    35    36 1   
    74    35    43 1   
    75    35    85 1   
    76    36    37 1   
    77    36    86 1   
    78    36    87 1   
    79    37    41 ar  
    80    38    39 1   
    81    38    88 1   
    82    39    89 1   
    83    39    90 1   
    84    39    91 1   
    85    41    42 ar  
    86    41    92 1   
    87    42    93 1   
    88    44    45 1   
    89    44    94 1   
    90    44    95 1   
    91    44    96 1   
    92    45    51 1   
    93    46    47 1   
    94    46    48 1   
    95    47    50 1   
    96    47    97 1   
    97    47    98 1   
    98    48    49 1   
    99    48    51 1   
   100    48    99 1   
   101    49    50 1   
   102    49   100 1   
   103    49   101 1   
   104    50   102 1   
   105    50   103 1   
   106    51    52 2   
@<TRIPOS>SUBSTRUCTURE
     1 PKF         1 TEMP              0 ****  ****    0 ROOT
