@<TRIPOS>MOLECULE
PKF
  103   106     1     0     0
SMALL
bcc


@<TRIPOS>ATOM
      1 C1           0.8560     1.9110    12.6510 c          1 PKF       0.768100
      2 O1           0.9520     2.5880    13.6560 o          1 PKF      -0.590000
      3 O2           0.8360     2.4090    11.4100 os         1 PKF      -0.441900
      4 C2           0.9160     3.8250    11.2580 c3         1 PKF       0.207700
      5 C3           0.8230     4.1230     9.7900 ca         1 PKF      -0.088300
      6 C4           1.7750     3.6200     8.9040 ca         1 PKF      -0.106000
      7 C5          -0.2040     4.9190     9.2950 ca         1 PKF      -0.106000
      8 C6           1.7000     3.9130     7.5510 ca         1 PKF      -0.137000
      9 C7          -0.2790     5.2170     7.9390 ca         1 PKF      -0.137000
     10 C8           0.6730     4.7130     7.0640 ca         1 PKF      -0.130000
     11 N1           0.7560     0.5720    12.6300 n          1 PKF      -0.461800
     12 C9           0.6270    -0.2180    13.8460 c5         1 PKF       0.121000
     13 C10          0.6120    -0.2020    11.4150 c5         1 PKF       0.045700
     14 C11          0.5680    -1.6500    11.9280 c5         1 PKF      -0.081400
     15 C12          0.0210    -1.5240    13.3470 c5         1 PKF      -0.097400
     16 C13         -0.6760     0.1640    10.6850 c          1 PKF       0.671100
     17 O3          -1.7150     0.3780    11.2890 o          1 PKF      -0.595100
     18 N2          -0.5590     0.1960     9.3520 ns         1 PKF      -0.546900
     19 C14         -0.4090     1.4580     4.9970 c3         1 PKF      -0.099400
     20 C15         -1.6470     0.4520     8.4500 c3         1 PKF       0.031700
     21 C16         -1.2270     1.4780     7.3970 c3         1 PKF      -0.091400
     22 C17         -0.1670     0.9610     6.4170 c3         1 PKF      -0.088400
     23 C18         -2.1590    -0.8860     7.8800 c          1 PKF       0.651100
     24 O4          -1.9420    -1.9350     8.4620 o          1 PKF      -0.586100
     25 C19          0.4440     0.7160     3.9730 c3         1 PKF       0.125800
     26 N3          -0.3320     0.4860     2.7320 nz         1 PKF      -0.912600
     27 N20         -2.8150    -3.3980     3.6390 n7         1 PKF      -0.953300
     28 O5          -0.8270    -2.4120     5.0610 o          1 PKF      -0.825000
     29 O6          -2.3650    -0.8580     3.6170 o          1 PKF      -0.825000
     30 C21         -4.7390    -3.7680     2.1770 c          1 PKF       0.660100
     31 C22         -5.6270     0.5260     6.0140 ca         1 PKF      -0.117000
     32 C23         -6.0690     1.7550     5.5410 ca         1 PKF      -0.139000
     33 C24         -6.2220     1.9600     4.1770 ca         1 PKF      -0.139000
     34 N4          -2.8800    -0.7950     6.7500 ns         1 PKF      -0.550900
     35 C25         -3.3280    -1.9230     5.9610 c3         1 PKF      -0.077500
     36 C26         -4.8330    -1.8380     5.6650 c3         1 PKF      -0.022100
     37 C27         -5.3170    -0.5140     5.1380 ca         1 PKF      -0.065300
     38 C28         -3.2760    -3.3470     2.2780 c3         1 PKF       0.194500
     39 C29         -2.4480    -4.2540     1.3630 c3         1 PKF      -0.111100
     40 O7          -5.2100    -4.6320     2.9050 o          1 PKF      -0.593100
     41 C30         -5.4810    -0.2930     3.7730 ca         1 PKF      -0.117000
     42 C31         -5.9340     0.9270     3.2940 ca         1 PKF      -0.139000
     43 P1          -2.1890    -2.0910     4.5050 p5         1 PKF       1.273500
     44 C32         -8.2840    -6.8670     0.1200 c3         1 PKF       0.128700
     45 O8          -8.0700    -5.5630     0.6650 os         1 PKF      -0.416900
     46 N5          -5.4850    -3.1700     1.2300 n          1 PKF      -0.478800
     47 C33         -5.0430    -2.1840     0.2450 c5         1 PKF       0.111000
     48 C34         -6.8520    -3.5930     1.0260 c5         1 PKF       0.052700
     49 C35         -7.3880    -2.5770     0.0060 c5         1 PKF      -0.082400
     50 C36         -6.1490    -2.2080    -0.8020 c5         1 PKF      -0.099400
     51 C37         -6.8880    -5.0030     0.4630 c          1 PKF       0.633100
     52 O9          -5.9810    -5.5260    -0.1300 o          1 PKF      -0.531000
     53 H22A         1.8630     4.1890    11.6650 h1         1 PKF       0.058700
     54 H21          0.1060     4.3160    11.8010 h1         1 PKF       0.058700
     55 H4           2.5840     3.0020     9.2730 ha         1 PKF       0.137500
     56 H5          -0.9520     5.3150     9.9710 ha         1 PKF       0.137500
     57 H6           2.4470     3.5180     6.8730 ha         1 PKF       0.129500
     58 H7          -1.0840     5.8380     7.5690 ha         1 PKF       0.129500
     59 H8           0.6160     4.9410     6.0080 ha         1 PKF       0.123000
     60 H92         -0.0050     0.2860    14.5760 h1         1 PKF       0.056200
     61 H91          1.6070    -0.3830    14.3050 h1         1 PKF       0.056200
     62 H10          1.4710    -0.0580    10.7530 h1         1 PKF       0.062700
     63 H112         1.5830    -2.0490    11.9480 hc         1 PKF       0.065200
     64 H111        -0.0270    -2.3000    11.2870 hc         1 PKF       0.065200
     65 H122        -1.0670    -1.4520    13.3340 hc         1 PKF       0.065200
     66 H121         0.2940    -2.3690    13.9770 hc         1 PKF       0.065200
     67 H2           0.3440     0.0010     8.9490 hn         1 PKF       0.316500
     68 H142        -0.2480     2.5360     4.9260 hc         1 PKF       0.062700
     69 H141        -1.4620     1.2860     4.7600 hc         1 PKF       0.062700
     70 H15         -2.4650     0.8770     9.0380 h1         1 PKF       0.101700
     71 H162        -0.8710     2.3660     7.9190 hc         1 PKF       0.056700
     72 H161        -2.1150     1.8160     6.8520 hc         1 PKF       0.056700
     73 H172        -0.1800    -0.1320     6.3790 hc         1 PKF       0.065200
     74 H171         0.8320     1.2470     6.7560 hc         1 PKF       0.065200
     75 H192         0.7100    -0.2740     4.3410 hx         1 PKF       0.090200
     76 H191         1.3590     1.2470     3.7210 hx         1 PKF       0.090200
     77 H33         -0.6320     1.3590     2.3040 hn         1 PKF       0.455133
     78 H32         -1.2020    -0.1050     2.9910 hn         1 PKF       0.455133
     79 H31A         0.2170    -0.0120     2.0350 hn         1 PKF       0.455133
     80 H20         -2.6110    -4.3220     3.9900 hn         1 PKF       0.424800
     81 H22         -5.5350     0.3690     7.0830 ha         1 PKF       0.133000
     82 H23         -6.3030     2.5470     6.2400 ha         1 PKF       0.121500
     83 H24         -6.5750     2.9140     3.8050 ha         1 PKF       0.122000
     84 H4N1        -2.9830     0.1050     6.3110 hn         1 PKF       0.307500
     85 H25         -3.1730    -2.8210     6.5620 h1         1 PKF       0.099700
     86 H262        -5.3590    -2.0580     6.5980 hc         1 PKF       0.059200
     87 H261        -5.0860    -2.6390     4.9680 hc         1 PKF       0.059200
     88 H28         -3.1650    -2.3160     1.9400 h1         1 PKF       0.063700
     89 H293        -2.4910    -5.2890     1.7060 hc         1 PKF       0.043367
     90 H292        -2.8050    -4.2350     0.3320 hc         1 PKF       0.043367
     91 H291        -1.4070    -3.9340     1.3690 hc         1 PKF       0.043367
     92 H30         -5.2670    -1.0930     3.0770 ha         1 PKF       0.133000
     93 H31         -6.0620     1.0750     2.2290 ha         1 PKF       0.121500
     94 H323        -9.3100    -7.1270     0.3620 h1         1 PKF       0.048033
     95 H322        -7.6100    -7.5970     0.5670 h1         1 PKF       0.048033
     96 H321        -8.1550    -6.8720    -0.9620 h1         1 PKF       0.048033
     97 H332        -4.0730    -2.4390    -0.1790 h1         1 PKF       0.046200
     98 H331        -4.9580    -1.1930     0.7010 h1         1 PKF       0.046200
     99 H34         -7.4260    -3.5630     1.9540 h1         1 PKF       0.102700
    100 H352        -7.7680    -1.7080     0.5450 hc         1 PKF       0.062700
    101 H351        -8.2040    -2.9720    -0.5980 hc         1 PKF       0.062700
    102 H362        -5.9420    -2.9680    -1.5560 hc         1 PKF       0.058700
    103 H361        -6.2460    -1.2510    -1.3120 hc         1 PKF       0.058700
@<TRIPOS>BOND
     1     1     2 2   
     2     1     3 1   
     3     1    11 1   
     4     3     4 1   
     5     4     5 1   
     6     4    53 1   
     7     4    54 1   
     8     5     6 ar  
     9     5     7 ar  
    10     6     8 ar  
    11     6    55 1   
    12     7     9 ar  
    13     7    56 1   
    14     8    10 ar  
    15     8    57 1   
    16     9    10 ar  
    17     9    58 1   
    18    10    59 1   
    19    11    12 1   
    20    11    13 1   
    21    12    15 1   
    22    12    60 1   
    23    12    61 1   
    24    13    14 1   
    25    13    16 1   
    26    13    62 1   
    27    14    15 1   
    28    14    63 1   
    29    14    64 1   
    30    15    65 1   
    31    15    66 1   
    32    16    17 2   
    33    16    18 1   
    34    18    20 1   
    35    18    67 1   
    36    19    22 1   
    37    19    25 1   
    38    19    68 1   
    39    19    69 1   
    40    20    21 1   
    41    20    23 1   
    42    20    70 1   
    43    21    22 1   
    44    21    71 1   
    45    21    72 1   
    46    22    73 1   
    47    22    74 1   
    48    23    24 2   
    49    23    34 1   
    50    25    26 1   
    51    25    75 1   
    52    25    76 1   
    53    26    77 1   
    54    26    78 1   
    55    26    79 1   
    56    27    38 1   
    57    27    43 1   
    58    27    80 1   
    59    28    43 1   
    60    29    43 1   
    61    30    38 1   
    62    30    40 2   
    63    30    46 1   
    64    31    32 ar  
    65    31    37 ar  
    66    31    81 1   
    67    32    33 ar  
    68    32    82 1   
    69    33    42 ar  
    70    33    83 1   
    71    34    35 1   
    72    34    84 1   
    73    35    36 1   
    74    35    43 1   
    75    35    85 1   
    76    36    37 1   
    77    36    86 1   
    78    36    87 1   
    79    37    41 ar  
    80    38    39 1   
    81    38    88 1   
    82    39    89 1   
    83    39    90 1   
    84    39    91 1   
    85    41    42 ar  
    86    41    92 1   
    87    42    93 1   
    88    44    45 1   
    89    44    94 1   
    90    44    95 1   
    91    44    96 1   
    92    45    51 1   
    93    46    47 1   
    94    46    48 1   
    95    47    50 1   
    96    47    97 1   
    97    47    98 1   
    98    48    49 1   
    99    48    51 1   
   100    48    99 1   
   101    49    50 1   
   102    49   100 1   
   103    49   101 1   
   104    50   102 1   
   105    50   103 1   
   106    51    52 2   
@<TRIPOS>SUBSTRUCTURE
     1 PKF         1 TEMP              0 ****  ****    0 ROOT
