@<TRIPOS>MOLECULE
PKG
   62    66     1     0     0
SMALL
bcc


@<TRIPOS>ATOM
      1 C14         -1.5360    -1.4800    -1.4890 ca         1 PKG      -0.084300
      2 C11          0.4460     0.3050    -0.5800 ca         1 PKG      -0.030300
      3 C7           2.2430    -0.6480     2.0260 c3         1 PKG      -0.048800
      4 C13         -1.6830    -0.8250    -0.2700 ca         1 PKG      -0.112300
      5 N1           6.4520    -1.2960     0.1450 na         1 PKG       0.083900
      6 N2           6.2350    -1.9890     1.2560 nc         1 PKG      -0.192400
      7 N            5.0620    -1.7440     1.7020 nd         1 PKG      -0.231400
      8 CA           4.4630    -0.8450     0.8660 ca         1 PKG       0.010400
      9 O           -5.9290    -1.7350    -1.1430 o          1 PKG      -0.615100
     10 CB           3.1850    -0.2670     0.9260 ca         1 PKG      -0.000300
     11 CG           2.8650     0.6360    -0.0830 ca         1 PKG      -0.075300
     12 CD1          1.4950     1.2850    -0.0940 c3         1 PKG       0.029900
     13 CD2          3.8040     0.9230    -1.1030 ca         1 PKG      -0.074000
     14 CE1          1.4080     2.5910    -0.8860 c3         1 PKG      -0.205400
     15 CZ           0.1030     3.3690    -0.6320 c          1 PKG       0.927600
     16 OH          -0.4100     3.9390    -1.6160 o          1 PKG      -0.839300
     17 C12         -0.6960     0.0570     0.1660 ca         1 PKG      -0.094000
     18 C15         -0.3910    -1.2270    -2.2450 ca         1 PKG      -0.135000
     19 C16          0.5850    -0.3540    -1.8010 ca         1 PKG      -0.114000
     20 C17         -2.5830    -2.4460    -1.9760 c6         1 PKG      -0.050100
     21 C18         -3.4600    -2.9130    -0.8270 c6         1 PKG       0.094000
     22 C19         -2.8810    -1.0580     0.6210 c6         1 PKG       0.147300
     23 C2           5.3670    -0.5430    -0.1520 ca         1 PKG      -0.081200
     24 C21         -5.6570    -0.1800     0.6030 ca         1 PKG      -0.135600
     25 C22         -6.2500     0.9420     0.0320 ca         1 PKG      -0.089000
     26 C23         -6.7660     1.9440     0.8410 ca         1 PKG      -0.135000
     27 C24         -6.7240     1.8160     2.2230 ca         1 PKG      -0.114000
     28 C25         -6.1570     0.6860     2.7960 ca         1 PKG      -0.135000
     29 C26         -5.6180    -0.3060     1.9900 ca         1 PKG      -0.089000
     30 C28          8.5980    -0.1340    -0.2160 c3         1 PKG      -0.114100
     31 C3           5.0560     0.3550    -1.1720 ca         1 PKG      -0.162000
     32 N4          -3.9380    -1.7690    -0.0700 n          1 PKG      -0.462800
     33 O2          -0.3160     3.4030     0.5430 o          1 PKG      -0.839300
     34 H1           1.7650     0.2230     2.4730 hc         1 PKG       0.051367
     35 H2           1.4410    -1.2860     1.6500 hc         1 PKG       0.051367
     36 H3           2.7580    -1.1930     2.8140 hc         1 PKG       0.051367
     37 H4           1.2420     1.5430     0.9370 hc         1 PKG       0.087700
     38 H5           3.5300     1.6280    -1.8770 ha         1 PKG       0.147000
     39 H6           2.2430     3.2400    -0.5940 hc         1 PKG       0.025200
     40 H7           1.5190     2.4090    -1.9580 hc         1 PKG       0.025200
     41 H9          -0.8230     0.5640     1.1170 ha         1 PKG       0.149000
     42 H10         -0.2610    -1.7330    -3.1950 ha         1 PKG       0.114000
     43 H11          1.4680    -0.1960    -2.4110 ha         1 PKG       0.125000
     44 H12         -3.2060    -1.9720    -2.7400 hc         1 PKG       0.051700
     45 H13         -2.1090    -3.3070    -2.4510 hc         1 PKG       0.051700
     46 H14         -4.3030    -3.4990    -1.1830 h1         1 PKG       0.052700
     47 H15         -2.8830    -3.5440    -0.1460 h1         1 PKG       0.052700
     48 H16         -2.5720    -1.6250     1.5060 h1         1 PKG       0.060200
     49 H17         -3.2480    -0.0980     0.9780 h1         1 PKG       0.060200
     50 H18         -6.2950     1.0420    -1.0450 ha         1 PKG       0.139000
     51 H19         -7.2080     2.8230     0.3910 ha         1 PKG       0.129000
     52 H20         -7.1350     2.5950     2.8520 ha         1 PKG       0.125000
     53 H21         -6.1320     0.5750     3.8730 ha         1 PKG       0.129000
     54 H22         -5.1780    -1.1850     2.4450 ha         1 PKG       0.139000
     55 H23          8.2200    -2.2640    -0.2160 h1         1 PKG       0.060200
     56 H24          7.5470    -1.4210    -1.6010 h1         1 PKG       0.060200
     57 H25          8.7960    -0.0610     0.8530 hc         1 PKG       0.047033
     58 H26          9.5520    -0.2260    -0.7330 hc         1 PKG       0.047033
     59 H27          8.1280     0.7930    -0.5450 hc         1 PKG       0.047033
     60 H28          5.7470     0.6000    -1.9670 ha         1 PKG       0.132000
     61 C20         -5.1780    -1.2820    -0.2880 c          1 PKG       0.687700
     62 C27          7.7340    -1.3430    -0.5300 c3         1 PKG       0.065300
@<TRIPOS>BOND
     1     1     4 ar  
     2     1    18 ar  
     3     1    20 1   
     4     2    12 1   
     5     2    17 ar  
     6     2    19 ar  
     7     3    10 1   
     8     3    34 1   
     9     3    35 1   
    10     3    36 1   
    11     4    17 ar  
    12     4    22 1   
    13     5     6 1   
    14     5    23 1   
    15     5    62 1   
    16     6     7 2   
    17     7     8 1   
    18     8    10 ar  
    19     8    23 ar  
    20     9    61 2   
    21    10    11 ar  
    22    11    12 1   
    23    11    13 ar  
    24    12    14 1   
    25    12    37 1   
    26    13    31 ar  
    27    13    38 1   
    28    14    15 1   
    29    14    39 1   
    30    14    40 1   
    31    15    16 1   
    32    15    33 1   
    33    17    41 1   
    34    18    19 ar  
    35    18    42 1   
    36    19    43 1   
    37    20    21 1   
    38    20    44 1   
    39    20    45 1   
    40    21    32 1   
    41    21    46 1   
    42    21    47 1   
    43    22    32 1   
    44    22    48 1   
    45    22    49 1   
    46    23    31 ar  
    47    24    25 ar  
    48    24    29 ar  
    49    24    61 1   
    50    25    26 ar  
    51    25    50 1   
    52    26    27 ar  
    53    26    51 1   
    54    27    28 ar  
    55    27    52 1   
    56    28    29 ar  
    57    28    53 1   
    58    29    54 1   
    59    30    57 1   
    60    30    58 1   
    61    30    59 1   
    62    30    62 1   
    63    31    60 1   
    64    32    61 1   
    65    55    62 1   
    66    56    62 1   
@<TRIPOS>SUBSTRUCTURE
     1 PKG         1 TEMP              0 ****  ****    0 ROOT
