@<TRIPOS>MOLECULE
PKG
   62    66     1     0     0
SMALL
No Charge or Current Charge


@<TRIPOS>ATOM
      1 C14         -1.4730    -1.3740    -1.5900 ca         1 PKG      -0.084300
      2 C11          0.5120     0.4250    -0.6830 ca         1 PKG      -0.030300
      3 C7           2.2810    -0.4460     2.1390 c3         1 PKG      -0.048800
      4 C13         -1.6580    -0.6750    -0.3780 ca         1 PKG      -0.112300
      5 N1           6.5120    -1.4020     0.3180 na         1 PKG       0.054600
      6 N2           6.2850    -2.0510     1.5190 nc         1 PKG      -0.192400
      7 N            5.0680    -1.7090     1.9440 nd         1 PKG      -0.231400
      8 CA           4.5280    -0.8360     1.0020 ca         1 PKG       0.010400
      9 O           -5.9680    -1.6250    -1.3160 o          1 PKG      -0.615100
     10 CB           3.2680    -0.2000     0.9950 ca         1 PKG      -0.000300
     11 CG           2.9590     0.6630    -0.1030 ca         1 PKG      -0.075300
     12 CD1          1.5940     1.3850    -0.1770 c3         1 PKG       0.029900
     13 CD2          3.9200     0.8290    -1.1440 ca         1 PKG      -0.056000
     14 CE1          1.6150     2.7090    -0.9970 c3         1 PKG      -0.205400
     15 CZ           0.3550     3.5440    -0.7130 c          1 PKG       0.717000
     16 OH          -0.6050     3.4210    -1.4560 o          1 PKG      -0.734000
     17 C12         -0.6640     0.2190     0.0660 ca         1 PKG      -0.076000
     18 C15         -0.3060    -1.1640    -2.3460 ca         1 PKG      -0.117000
     19 C16          0.6800    -0.2720    -1.8960 ca         1 PKG      -0.096000
     20 C17         -2.5380    -2.3470    -2.0890 c6         1 PKG      -0.050100
     21 C18         -3.4440    -2.8360    -0.9430 c6         1 PKG       0.094000
     22 C19         -2.9240    -0.8650     0.4740 c6         1 PKG       0.147300
     23 C2           5.4210    -0.6490    -0.0020 ca         1 PKG      -0.081200
     24 C21         -5.8970    -0.2480     0.6260 ca         1 PKG      -0.135600
     25 C22         -6.8670     0.6850     0.1950 ca         1 PKG      -0.071000
     26 C23         -7.4570     1.5780     1.1070 ca         1 PKG      -0.117000
     27 C24         -7.0980     1.5410     2.4630 ca         1 PKG      -0.096000
     28 C25         -6.1550     0.6020     2.9090 ca         1 PKG      -0.117000
     29 C26         -5.5630    -0.2930     2.0010 ca         1 PKG      -0.071000
     30 C28          8.7170    -0.3370    -0.2500 c3         1 PKG      -0.114100
     31 C3           5.1650     0.1740    -1.1010 ca         1 PKG      -0.144000
     32 N4          -3.9830    -1.6960    -0.1640 n          1 PKG      -0.395800
     33 O2           0.3660     4.2820     0.2610 o          1 PKG      -0.734000
     34 H1           2.0680     0.4790     2.6860 hc         1 PKG       0.051367
     35 H2           1.3340    -0.8490     1.7640 hc         1 PKG       0.051367
     36 H3           2.6610    -1.1680     2.8710 hc         1 PKG       0.051367
     37 H4           1.3350     1.6950     0.8430 hc         1 PKG       0.087700
     38 H5           3.7090     1.4620    -2.0010 ha         1 PKG       0.129000
     39 H6           2.4980     3.2550    -0.6400 hc         1 PKG       0.025200
     40 H7           1.6590     2.4380    -2.0590 hc         1 PKG       0.025200
     41 H9          -0.8080     0.7560     1.0010 ha         1 PKG       0.131000
     42 H10         -0.1610    -1.6950    -3.2840 ha         1 PKG       0.096000
     43 H11          1.5770    -0.1250    -2.4930 ha         1 PKG       0.107000
     44 H12         -3.1520    -1.8510    -2.8530 hc         1 PKG       0.051700
     45 H13         -2.0690    -3.2120    -2.5770 hc         1 PKG       0.051700
     46 H14         -4.2580    -3.4560    -1.3450 h1         1 PKG       0.052700
     47 H15         -2.8570    -3.4760    -0.2680 h1         1 PKG       0.052700
     48 H16         -2.6390    -1.3300     1.4290 h1         1 PKG       0.060200
     49 H17         -3.3180     0.1340     0.7030 h1         1 PKG       0.060200
     50 H18         -7.1580     0.7250    -0.8530 ha         1 PKG       0.121000
     51 H19         -8.1950     2.2980     0.7600 ha         1 PKG       0.111000
     52 H20         -7.5560     2.2310     3.1680 ha         1 PKG       0.107000
     53 H21         -5.8880     0.5600     3.9630 ha         1 PKG       0.111000
     54 H22         -4.8610    -1.0330     2.3760 ha         1 PKG       0.121000
     55 H23          8.2520    -2.4520    -0.2030 h1         1 PKG       0.060200
     56 H24          7.4830    -1.5740    -1.5350 h1         1 PKG       0.060200
     57 H25          9.0130    -0.2750     0.8050 hc         1 PKG       0.047033
     58 H26          9.6220    -0.4680    -0.8550 hc         1 PKG       0.047033
     59 H27          8.2460     0.6110    -0.5340 hc         1 PKG       0.047033
     60 H28          5.8930     0.3050    -1.8970 ha         1 PKG       0.114000
     61 C20         -5.2950    -1.2110    -0.3780 c          1 PKG       0.620700
     62 C27          7.7490    -1.5150    -0.4730 c3         1 PKG       0.094600
@<TRIPOS>BOND
     1     1     4 ar  
     2     1    18 ar  
     3     1    20 1   
     4     2    12 1   
     5     2    17 ar  
     6     2    19 ar  
     7     3    10 1   
     8     3    34 1   
     9     3    35 1   
    10     3    36 1   
    11     4    17 ar  
    12     4    22 1   
    13     5     6 1   
    14     5    23 1   
    15     5    62 1   
    16     6     7 2   
    17     7     8 1   
    18     8    10 ar  
    19     8    23 ar  
    20     9    61 2   
    21    10    11 ar  
    22    11    12 1   
    23    11    13 ar  
    24    12    14 1   
    25    12    37 1   
    26    13    31 ar  
    27    13    38 1   
    28    14    15 1   
    29    14    39 1   
    30    14    40 1   
    31    15    16 1   
    32    15    33 1   
    33    17    41 1   
    34    18    19 ar  
    35    18    42 1   
    36    19    43 1   
    37    20    21 1   
    38    20    44 1   
    39    20    45 1   
    40    21    32 1   
    41    21    46 1   
    42    21    47 1   
    43    22    32 1   
    44    22    48 1   
    45    22    49 1   
    46    23    31 ar  
    47    24    25 ar  
    48    24    29 ar  
    49    24    61 1   
    50    25    26 ar  
    51    25    50 1   
    52    26    27 ar  
    53    26    51 1   
    54    27    28 ar  
    55    27    52 1   
    56    28    29 ar  
    57    28    53 1   
    58    29    54 1   
    59    30    57 1   
    60    30    58 1   
    61    30    59 1   
    62    30    62 1   
    63    31    60 1   
    64    32    61 1   
    65    55    62 1   
    66    56    62 1   
@<TRIPOS>SUBSTRUCTURE
     1 PKG         1 TEMP              0 ****  ****    0 ROOT
