@<TRIPOS>MOLECULE
PKH
   52    56     1     0     0
SMALL
abcg2


@<TRIPOS>ATOM
      1 C15          7.4680    -9.9740    -8.4650 c5         1 PKH       0.071300
      2 C17          7.7830    -8.0390    -7.0490 c5         1 PKH      -0.086400
      3 C20          8.3480   -10.8910    -7.6000 c5         1 PKH      -0.107400
      4 C22          9.2230    -9.9720    -4.0600 c          1 PKH       0.621700
      5 C24         10.5500    -9.5970    -3.4650 ca         1 PKH      -0.151600
      6 C26         12.3110    -7.9580    -3.1800 ca         1 PKH      -0.073000
      7 C28         12.4670   -10.0840    -2.0640 ca         1 PKH      -0.092000
      8 C16          8.0600    -8.5560    -8.4920 c5         1 PKH      -0.091400
      9 C18          7.0530    -9.2200    -6.3980 c5         1 PKH       0.027300
     10 C19          8.0360   -10.4040    -6.1560 c5         1 PKH       0.108700
     11 C25         11.1030    -8.3450    -3.7380 ca         1 PKH      -0.092000
     12 C27         13.0120    -8.8280    -2.3410 cp         1 PKH      -0.094500
     13 C29         11.2520   -10.4530    -2.6180 ca         1 PKH       0.161000
     14 C31         14.3190    -8.4290    -1.7730 cp         1 PKH       0.339500
     15 C32         15.2940    -9.3690    -1.4360 ca         1 PKH       0.297900
     16 C34         16.6890    -7.7040    -0.7620 ca         1 PKH       0.298900
     17 C35         15.7320    -6.7390    -1.1130 ca         1 PKH       0.357300
     18 C37         15.9560    -5.2900    -0.9500 cx         1 PKH      -0.205000
     19 C38         17.3320    -4.6820    -1.1410 cx         1 PKH      -0.108900
     20 C39         16.7440    -4.7500     0.2290 cx         1 PKH      -0.108900
     21 N13          4.1580    -9.8680    -6.7440 nv         1 PKH      -0.599700
     22 N14          6.3150    -9.7690    -7.5540 nh         1 PKH      -0.294800
     23 N21          9.2190   -10.0560    -5.4050 ns         1 PKH      -0.503900
     24 N33         16.4710    -9.0030    -0.9290 nb         1 PKH      -0.619000
     25 N36         14.5550    -7.1200    -1.6140 nb         1 PKH      -0.645000
     26 O23          8.2270   -10.1700    -3.3690 o          1 PKH      -0.572100
     27 CL30        10.6380   -12.0510    -2.2640 cl         1 PKH      -0.177000
     28 H1           7.1880   -10.3780    -9.4320 h1         1 PKH       0.110700
     29 H2           8.6900    -7.7900    -6.5020 hc         1 PKH       0.080700
     30 H3           7.1410    -7.1600    -7.0600 hc         1 PKH       0.080700
     31 H4           8.0710   -11.9360    -7.7230 hc         1 PKH       0.087700
     32 H5           9.4000   -10.7800    -7.8570 hc         1 PKH       0.087700
     33 H6          12.7240    -6.9850    -3.4020 ha         1 PKH       0.147000
     34 H7          12.9750   -10.7780    -1.4100 ha         1 PKH       0.144000
     35 H9           9.1200    -8.5840    -8.7370 hc         1 PKH       0.082200
     36 H10          7.5480    -7.9440    -9.2330 hc         1 PKH       0.082200
     37 H11          6.4350    -8.9780    -5.5410 h1         1 PKH       0.107700
     38 H12          7.5020   -11.1720    -5.5990 h1         1 PKH       0.092700
     39 H13         10.5730    -7.6700    -4.3980 ha         1 PKH       0.112000
     40 H14         15.1340   -10.4280    -1.5930 h4         1 PKH       0.033100
     41 H15         17.6460    -7.4180    -0.3440 h4         1 PKH       0.039100
     42 H16         15.1160    -4.6940    -1.2800 hc         1 PKH       0.102700
     43 H17         18.1420    -5.3570    -1.3830 hc         1 PKH       0.079700
     44 H18         17.3750    -3.7230    -1.6390 hc         1 PKH       0.079700
     45 H19         17.1510    -5.4730     0.9230 hc         1 PKH       0.079700
     46 H20         16.3790    -3.8380     0.6820 hc         1 PKH       0.079700
     47 H21          3.1980   -10.1500    -6.8540 hn         1 PKH       0.376000
     48 H22         10.0740    -9.8620    -5.9020 hn         1 PKH       0.332500
     49 S1           4.6030   -10.9090    -9.1800 sh         1 PKH      -0.129000
     50 H8           4.4050    -9.3900    -5.8910 hn         1 PKH       0.376000
     51 H23          3.2860   -10.9510    -8.9200 hs         1 PKH       0.226800
     52 C12          5.0590   -10.1080    -7.6850 c2         1 PKH       0.447700
@<TRIPOS>BOND
     1     1     3 1   
     2     1     8 1   
     3     1    22 1   
     4     1    28 1   
     5     2     8 1   
     6     2     9 1   
     7     2    29 1   
     8     2    30 1   
     9     3    10 1   
    10     3    31 1   
    11     3    32 1   
    12     4     5 1   
    13     4    23 1   
    14     4    26 2   
    15     5    11 ar  
    16     5    13 ar  
    17     6    11 ar  
    18     6    12 ar  
    19     6    33 1   
    20     7    12 ar  
    21     7    13 ar  
    22     7    34 1   
    23     8    35 1   
    24     8    36 1   
    25     9    10 1   
    26     9    22 1   
    27     9    37 1   
    28    10    23 1   
    29    10    38 1   
    30    11    39 1   
    31    12    14 1   
    32    13    27 1   
    33    14    15 ar  
    34    14    25 ar  
    35    15    24 ar  
    36    15    40 1   
    37    16    17 ar  
    38    16    24 ar  
    39    16    41 1   
    40    17    18 1   
    41    17    25 ar  
    42    18    19 1   
    43    18    20 1   
    44    18    42 1   
    45    19    20 1   
    46    19    43 1   
    47    19    44 1   
    48    20    45 1   
    49    20    46 1   
    50    21    47 1   
    51    21    50 1   
    52    21    52 2   
    53    22    52 1   
    54    23    48 1   
    55    49    51 1   
    56    49    52 1   
@<TRIPOS>SUBSTRUCTURE
     1 PKH         1 TEMP              0 ****  ****    0 ROOT
