@<TRIPOS>MOLECULE
PKH
   52    56     1     0     0
SMALL
No Charge or Current Charge


@<TRIPOS>ATOM
      1 C15          7.3840    -9.1270    -8.3920 c5         1 PKH       0.071300
      2 C17          7.5490    -7.9070    -6.2710 c5         1 PKH      -0.086400
      3 C20          8.4280   -10.2120    -7.9480 c5         1 PKH      -0.107400
      4 C22          9.2930   -10.3730    -4.3070 c          1 PKH       0.621700
      5 C24         10.5380    -9.9170    -3.5750 ca         1 PKH      -0.151600
      6 C26         12.4510    -8.3820    -3.4180 ca         1 PKH      -0.073000
      7 C28         12.1300   -10.0660    -1.7150 ca         1 PKH      -0.092000
      8 C16          7.8970    -7.7760    -7.7960 c5         1 PKH      -0.091400
      9 C18          6.9510    -9.3560    -6.1690 c5         1 PKH       0.027300
     10 C19          8.0710   -10.4390    -6.4370 c5         1 PKH       0.108700
     11 C25         11.3010    -8.8370    -4.0830 ca         1 PKH      -0.092000
     12 C27         12.9020    -8.9860    -2.2160 cp         1 PKH      -0.094500
     13 C29         10.9740   -10.5260    -2.3710 ca         1 PKH       0.161000
     14 C31         14.1410    -8.4940    -1.5070 cp         1 PKH       0.339500
     15 C32         14.8360    -9.2710    -0.5180 ca         1 PKH       0.297900
     16 C34         16.3850    -7.5940    -0.2380 ca         1 PKH       0.298900
     17 C35         15.7150    -6.8080    -1.2220 ca         1 PKH       0.357300
     18 C37         16.1880    -5.4330    -1.6330 cx         1 PKH      -0.205000
     19 C38         17.6570    -5.0730    -1.7280 cx         1 PKH      -0.108900
     20 C39         16.7990    -4.4550    -0.6490 cx         1 PKH      -0.108900
     21 N13          4.3650   -10.6660    -6.8790 nv         1 PKH      -0.599700
     22 N14          6.2670    -9.3750    -7.4690 nh         1 PKH      -0.294800
     23 N21          9.2760   -10.0990    -5.6630 ns         1 PKH      -0.503900
     24 N33         15.9550    -8.8350     0.1240 nb         1 PKH      -0.619000
     25 N36         14.6000    -7.2590    -1.8540 nb         1 PKH      -0.645000
     26 O23          8.3360   -10.8930    -3.7490 o          1 PKH      -0.572100
     27 Cl30        10.1570   -11.9150    -1.6470 cl         1 PKH      -0.177000
     28 H1           7.1570    -9.0850    -9.4670 h1         1 PKH       0.110700
     29 H2           8.4040    -7.7210    -5.6130 hc         1 PKH       0.080700
     30 H3           6.7910    -7.1660    -5.9900 hc         1 PKH       0.080700
     31 H4           8.2840   -11.1410    -8.5120 hc         1 PKH       0.087700
     32 H5           9.4640    -9.9040    -8.1310 hc         1 PKH       0.087700
     33 H6          12.9990    -7.5470    -3.8500 ha         1 PKH       0.147000
     34 H7          12.4160   -10.5640    -0.7930 ha         1 PKH       0.144000
     35 H9           8.9650    -7.6060    -7.9770 hc         1 PKH       0.082200
     36 H10          7.3650    -6.9260    -8.2420 hc         1 PKH       0.082200
     37 H11          6.3300    -9.5300    -5.2800 h1         1 PKH       0.107700
     38 H12          7.7130   -11.4630    -6.2540 h1         1 PKH       0.092700
     39 H13         10.9990    -8.3150    -4.9890 ha         1 PKH       0.112000
     40 H14         14.4970   -10.2670    -0.2430 h4         1 PKH       0.033100
     41 H15         17.2780    -7.2270     0.2640 h4         1 PKH       0.039100
     42 H16         15.5440    -4.9970    -2.3940 hc         1 PKH       0.102700
     43 H17         18.3950    -5.8130    -1.4270 hc         1 PKH       0.079700
     44 H18         17.9700    -4.4360    -2.5520 hc         1 PKH       0.079700
     45 H19         16.9620    -4.7810     0.3760 hc         1 PKH       0.079700
     46 H20         16.5370    -3.4040    -0.7510 hc         1 PKH       0.079700
     47 H21          3.9980   -11.6090    -6.8340 hn         1 PKH       0.376000
     48 H22         10.1120    -9.6930    -6.0630 hn         1 PKH       0.332500
     49 S1           4.9830   -10.7440    -9.4390 sh         1 PKH      -0.129000
     50 H8           4.3910   -10.1630    -6.0020 hn         1 PKH       0.376000
     51 H23          3.7160   -11.1350    -9.1850 hs         1 PKH       0.226800
     52 C12          5.4320   -10.4650    -7.7340 c2         1 PKH       0.447700
@<TRIPOS>BOND
     1     1     3 1   
     2     1     8 1   
     3     1    22 1   
     4     1    28 1   
     5     2     8 1   
     6     2     9 1   
     7     2    29 1   
     8     2    30 1   
     9     3    10 1   
    10     3    31 1   
    11     3    32 1   
    12     4     5 1   
    13     4    23 1   
    14     4    26 2   
    15     5    11 ar  
    16     5    13 ar  
    17     6    11 ar  
    18     6    12 ar  
    19     6    33 1   
    20     7    12 ar  
    21     7    13 ar  
    22     7    34 1   
    23     8    35 1   
    24     8    36 1   
    25     9    10 1   
    26     9    22 1   
    27     9    37 1   
    28    10    23 1   
    29    10    38 1   
    30    11    39 1   
    31    12    14 1   
    32    13    27 1   
    33    14    15 ar  
    34    14    25 ar  
    35    15    24 ar  
    36    15    40 1   
    37    16    17 ar  
    38    16    24 ar  
    39    16    41 1   
    40    17    18 1   
    41    17    25 ar  
    42    18    19 1   
    43    18    20 1   
    44    18    42 1   
    45    19    20 1   
    46    19    43 1   
    47    19    44 1   
    48    20    45 1   
    49    20    46 1   
    50    21    47 1   
    51    21    50 1   
    52    21    52 2   
    53    22    52 1   
    54    23    48 1   
    55    49    51 1   
    56    49    52 1   
@<TRIPOS>SUBSTRUCTURE
     1 PKH         1 TEMP              0 ****  ****    0 ROOT
