@<TRIPOS>MOLECULE
PKJ
   45    49     1     0     0
SMALL
No Charge or Current Charge


@<TRIPOS>ATOM
      1 C24         -4.6870     2.2650     0.9070 ca         1 PKJ      -0.074000
      2 C28         -3.2520     1.9110    -1.0150 ca         1 PKJ      -0.074000
      3 C25         -4.4500     3.6490     0.8280 ca         1 PKJ      -0.111000
      4 C27         -3.0160     3.2940    -1.0950 ca         1 PKJ      -0.111000
      5 C5           4.8240     0.7280     0.4760 ca         1 PKJ      -0.121000
      6 C6           6.1970     1.0130     0.6480 ca         1 PKJ      -0.073000
      7 C12          5.3580    -1.6000    -0.0510 ca         1 PKJ      -0.144000
      8 C23         -4.0710     1.3740     0.0020 ca         1 PKJ      -0.059000
      9 C26         -3.6100     4.1710    -0.1710 ca         1 PKJ      -0.050300
     10 C4           4.3930    -0.5820     0.1240 ca         1 PKJ      -0.029000
     11 C7           7.1150    -0.0250     0.4610 ca         1 PKJ       0.032100
     12 C11          6.7100    -1.2840     0.1250 ca         1 PKJ       0.076100
     13 C18         -4.0720    -2.3670    -0.3390 cc         1 PKJ       0.410900
     14 C15         -2.2200    -1.3070    -0.5540 cc         1 PKJ       0.477800
     15 C20         -5.4540    -0.6480     0.7120 cc         1 PKJ      -0.236000
     16 C21         -4.3500    -0.0760     0.0760 cd         1 PKJ      -0.013000
     17 C2           1.8470    -0.2080     0.0150 c          1 PKJ       0.618100
     18 C9           8.9180    -1.2880     0.2470 c5         1 PKJ       0.372600
     19 C29         -3.3520     5.6680    -0.2550 c3         1 PKJ      -0.052800
     20 C13          0.5930    -1.0480    -0.2730 c3         1 PKJ      -0.075400
     21 N17         -3.1300    -3.2930    -0.3980 nd         1 PKJ      -0.316000
     22 N16         -1.9360    -2.6070    -0.5800 nd         1 PKJ      -0.374000
     23 N22         -3.5760    -1.1300    -0.3970 na         1 PKJ      -0.215000
     24 N3           3.0270    -0.9380    -0.0630 ns         1 PKJ      -0.143000
     25 O1           1.7940     0.9880     0.2830 o          1 PKJ      -0.570100
     26 O8           8.4630     0.0700     0.5920 os         1 PKJ      -0.340100
     27 O10          7.7490    -2.1470    -0.0020 os         1 PKJ      -0.343100
     28 S19         -5.5440    -2.4260     0.5700 ss         1 PKJ       0.042600
     29 H1          -5.3360     1.8900     1.6930 ha         1 PKJ       0.122000
     30 H2          -2.8180     1.2610    -1.7690 ha         1 PKJ       0.122000
     31 H3          -4.9210     4.3150     1.5470 ha         1 PKJ       0.118500
     32 H4          -2.3780     3.6840    -1.8850 ha         1 PKJ       0.118500
     33 H6           6.5340     2.0110     0.9190 ha         1 PKJ       0.137000
     34 H7           5.0660    -2.6130    -0.3180 ha         1 PKJ       0.133000
     35 H8          -6.2640    -0.1440     1.2220 h4         1 PKJ       0.169000
     36 H9           9.5310    -1.2420    -0.6600 h2         1 PKJ       0.066200
     37 H10          9.5050    -1.6990     1.0770 h2         1 PKJ       0.066200
     38 H11         -2.4730     5.9460     0.3380 hc         1 PKJ       0.047367
     39 H12         -3.1730     5.9850    -1.2900 hc         1 PKJ       0.047367
     40 H13         -4.2070     6.2430     0.1210 hc         1 PKJ       0.047367
     41 H14          0.6860    -1.4530    -1.2880 h1         1 PKJ       0.102200
     42 H15          0.5820    -1.8850     0.4350 h1         1 PKJ       0.102200
     43 H16          2.8920    -1.9130    -0.2980 hn         1 PKJ       0.159000
     44 S14         -1.0040    -0.0980    -0.1310 ss         1 PKJ      -0.209300
     45 H5           4.1160     1.5380     0.6230 ha         1 PKJ       0.147000
@<TRIPOS>BOND
     1     1     3 ar  
     2     1     8 ar  
     3     1    29 1   
     4     2     4 ar  
     5     2     8 ar  
     6     2    30 1   
     7     3     9 ar  
     8     3    31 1   
     9     4     9 ar  
    10     4    32 1   
    11     5     6 ar  
    12     5    10 ar  
    13     5    45 1   
    14     6    11 ar  
    15     6    33 1   
    16     7    10 ar  
    17     7    12 ar  
    18     7    34 1   
    19     8    16 1   
    20     9    19 1   
    21    10    24 1   
    22    11    12 ar  
    23    11    26 1   
    24    12    27 1   
    25    13    21 2   
    26    13    23 1   
    27    13    28 1   
    28    14    22 2   
    29    14    23 1   
    30    14    44 1   
    31    15    16 2   
    32    15    28 1   
    33    15    35 1   
    34    16    23 1   
    35    17    20 1   
    36    17    24 1   
    37    17    25 2   
    38    18    26 1   
    39    18    27 1   
    40    18    36 1   
    41    18    37 1   
    42    19    38 1   
    43    19    39 1   
    44    19    40 1   
    45    20    41 1   
    46    20    42 1   
    47    20    44 1   
    48    21    22 1   
    49    24    43 1   
@<TRIPOS>SUBSTRUCTURE
     1 PKJ         1 TEMP              0 ****  ****    0 ROOT
