@<TRIPOS>MOLECULE
PKJ
   45    49     1     0     0
SMALL
abcg2


@<TRIPOS>ATOM
      1 C24         -4.3110     2.2400     0.8660 ca         1 PKJ      -0.074000
      2 C28         -3.1290     1.7880    -1.1750 ca         1 PKJ      -0.074000
      3 C25         -3.9050     3.5620     0.8030 ca         1 PKJ      -0.111000
      4 C27         -2.7240     3.1120    -1.2270 ca         1 PKJ      -0.111000
      5 C5           4.4920     0.5250     1.0510 ca         1 PKJ      -0.121000
      6 C6           5.8170     0.9790     1.0940 ca         1 PKJ      -0.073000
      7 C12          5.1600    -1.4400    -0.2140 ca         1 PKJ      -0.144000
      8 C23         -3.9230     1.3380    -0.1230 ca         1 PKJ      -0.059000
      9 C26         -3.1000     4.0200    -0.2400 ca         1 PKJ      -0.050300
     10 C4           4.1650    -0.6600     0.4030 ca         1 PKJ      -0.029000
     11 C7           6.7750     0.2080     0.4880 ca         1 PKJ       0.032100
     12 C11          6.4480    -0.9790    -0.1460 ca         1 PKJ       0.076100
     13 C18         -4.1220    -2.3620    -0.0940 cc         1 PKJ       0.410900
     14 C15         -2.1860    -1.4230    -0.0420 cc         1 PKJ       0.477800
     15 C20         -5.6670    -0.4760    -0.0570 cc         1 PKJ      -0.236000
     16 C21         -4.3930    -0.0500    -0.0790 cd         1 PKJ      -0.013000
     17 C2           1.7020    -0.4610     0.3290 c          1 PKJ       0.618100
     18 C9           8.5990    -0.5780    -0.4930 c5         1 PKJ       0.372600
     19 C29         -2.6400     5.4460    -0.2820 c3         1 PKJ      -0.052800
     20 C13          0.4690    -1.3340     0.2120 c3         1 PKJ      -0.075400
     21 N17         -3.2510    -3.3220    -0.0660 nd         1 PKJ      -0.316000
     22 N16         -2.0290    -2.7200    -0.0380 nd         1 PKJ      -0.374000
     23 N22         -3.5190    -1.1380    -0.0940 na         1 PKJ      -0.215000
     24 N3           2.8540    -1.1630     0.3450 ns         1 PKJ      -0.143000
     25 O1           1.6180     0.7510     0.4030 o          1 PKJ      -0.570100
     26 O8           8.1160     0.4020     0.4130 os         1 PKJ      -0.340100
     27 O10          7.5710    -1.5520    -0.6370 os         1 PKJ      -0.343100
     28 S19         -5.8410    -2.2130    -0.0670 ss         1 PKJ       0.042600
     29 H1          -4.9270     1.9030     1.6900 ha         1 PKJ       0.122000
     30 H2          -2.8410     1.1110    -1.9700 ha         1 PKJ       0.122000
     31 H3          -4.2180     4.2490     1.5800 ha         1 PKJ       0.118500
     32 H4          -2.1140     3.4450    -2.0580 ha         1 PKJ       0.118500
     33 H6           6.0640     1.9010     1.6010 ha         1 PKJ       0.137000
     34 H7           4.9140    -2.3650    -0.7210 ha         1 PKJ       0.133000
     35 H8          -6.5450     0.1510    -0.0700 h4         1 PKJ       0.169000
     36 H9           8.8110    -0.1180    -1.4650 h2         1 PKJ       0.066200
     37 H10          9.4960    -1.0460    -0.0890 h2         1 PKJ       0.066200
     38 H11         -1.7910     5.5990     0.3870 hc         1 PKJ       0.047367
     39 H12         -2.3250     5.7360    -1.2840 hc         1 PKJ       0.047367
     40 H13         -3.4270     6.1290     0.0380 hc         1 PKJ       0.047367
     41 H14          0.5340    -1.9940    -0.6540 h1         1 PKJ       0.102200
     42 H15          0.3620    -1.9600     1.1000 h1         1 PKJ       0.102200
     43 H16          2.7760    -2.1600     0.2020 hn         1 PKJ       0.159000
     44 S14         -0.9410    -0.2100     0.0510 ss         1 PKJ      -0.209300
     45 H5           3.7330     1.1130     1.5400 ha         1 PKJ       0.147000
@<TRIPOS>BOND
     1     1     3 ar  
     2     1     8 ar  
     3     1    29 1   
     4     2     4 ar  
     5     2     8 ar  
     6     2    30 1   
     7     3     9 ar  
     8     3    31 1   
     9     4     9 ar  
    10     4    32 1   
    11     5     6 ar  
    12     5    10 ar  
    13     5    45 1   
    14     6    11 ar  
    15     6    33 1   
    16     7    10 ar  
    17     7    12 ar  
    18     7    34 1   
    19     8    16 1   
    20     9    19 1   
    21    10    24 1   
    22    11    12 ar  
    23    11    26 1   
    24    12    27 1   
    25    13    21 2   
    26    13    23 1   
    27    13    28 1   
    28    14    22 2   
    29    14    23 1   
    30    14    44 1   
    31    15    16 2   
    32    15    28 1   
    33    15    35 1   
    34    16    23 1   
    35    17    20 1   
    36    17    24 1   
    37    17    25 2   
    38    18    26 1   
    39    18    27 1   
    40    18    36 1   
    41    18    37 1   
    42    19    38 1   
    43    19    39 1   
    44    19    40 1   
    45    20    41 1   
    46    20    42 1   
    47    20    44 1   
    48    21    22 1   
    49    24    43 1   
@<TRIPOS>SUBSTRUCTURE
     1 PKJ         1 TEMP              0 ****  ****    0 ROOT
