@<TRIPOS>MOLECULE
PKM
   44    44     1     0     0
SMALL
abcg2


@<TRIPOS>ATOM
      1 C1          -0.3480    -2.9130    -0.6690 c          1 PKM       0.691000
      2 C10          1.2090     2.9680    -0.2730 c          1 PKM       0.603100
      3 C11          1.4350     3.9410    -1.4040 c3         1 PKM      -0.182100
      4 O1B         -1.0380    -3.9520    -0.5680 o          1 PKM      -0.702000
      5 C2          -0.1160    -2.1800     0.6880 c6         1 PKM       0.261000
      6 C3           1.3060    -1.6720     0.9040 c6         1 PKM      -0.099400
      7 C4           1.6350    -0.4500     0.0660 c6         1 PKM       0.164300
      8 O4           2.8700     0.1310     0.5100 os         1 PKM      -0.454100
      9 C5           0.5780     0.6320     0.2380 c6         1 PKM       0.073700
     10 C6          -0.8170     0.0440    -0.0220 c6         1 PKM       0.166300
     11 C7          -1.9230     1.0350     0.3440 c3         1 PKM       0.148300
     12 C8          -3.3070     0.5620    -0.1410 c3         1 PKM       0.136300
     13 C9          -4.3780     1.5800     0.2190 c3         1 PKM       0.124600
     14 O10          1.3390     3.3000     0.8950 o          1 PKM      -0.609100
     15 N5           0.8320     1.7320    -0.6570 ns         1 PKM      -0.497900
     16 C            4.0130    -0.2460    -0.0520 c          1 PKM       0.591100
     17 O            4.0930    -1.0750    -0.9250 o          1 PKM      -0.487000
     18 CH3          5.1830     0.4650     0.5610 c3         1 PKM      -0.159100
     19 O1           0.1270    -2.4160    -1.6990 o          1 PKM      -0.702000
     20 O6          -1.0370    -1.0930     0.7780 os         1 PKM      -0.508000
     21 O7          -1.9210     1.3160     1.7230 oh         1 PKM      -0.726000
     22 O8          -3.2910     0.2940    -1.5250 oh         1 PKM      -0.620000
     23 O9          -5.6310     1.0880    -0.1970 oh         1 PKM      -0.707000
     24 H113         0.6550     4.7040    -1.3810 hc         1 PKM       0.051367
     25 H112         2.3890     4.4470    -1.2640 hc         1 PKM       0.051367
     26 H111         1.4280     3.4780    -2.3890 hc         1 PKM       0.051367
     27 H32          1.4130    -1.4100     1.9620 hc         1 PKM       0.055200
     28 H31          2.0170    -2.4760     0.6980 hc         1 PKM       0.055200
     29 H4           1.7110    -0.7260    -0.9850 h1         1 PKM       0.105700
     30 H5           0.6160     1.0130     1.2610 h1         1 PKM       0.102700
     31 H6          -0.9020    -0.1960    -1.0890 h1         1 PKM       0.081700
     32 H7          -1.7020     1.9850    -0.1580 h1         1 PKM       0.053700
     33 H8          -3.5510    -0.3910     0.3410 h1         1 PKM       0.110700
     34 H92         -4.3550     1.7620     1.2980 h1         1 PKM       0.020200
     35 H91         -4.1360     2.5380    -0.2700 h1         1 PKM       0.020200
     36 HN5          0.7740     1.5420    -1.6460 hn         1 PKM       0.310500
     37 H14          5.4680    -0.0460     1.4820 hc         1 PKM       0.060033
     38 H16          6.0350     0.4450    -0.1140 hc         1 PKM       0.060033
     39 H15          4.9430     1.4950     0.8170 hc         1 PKM       0.060033
     40 HO7         -1.9650     0.4780     2.1970 ho         1 PKM       0.526000
     41 HO8         -3.1360     1.1200    -1.9960 ho         1 PKM       0.420000
     42 HO9         -6.3010     1.7250     0.0650 ho         1 PKM       0.487000
     43 O2          -0.4500    -3.0440     1.7060 oh         1 PKM      -0.679000
     44 H1          -0.9420    -3.7530     1.2420 ho         1 PKM       0.492000
@<TRIPOS>BOND
     1     1     4 1   
     2     1     5 1   
     3     1    19 1   
     4     2     3 1   
     5     2    14 2   
     6     2    15 1   
     7     3    24 1   
     8     3    25 1   
     9     3    26 1   
    10     5     6 1   
    11     5    20 1   
    12     5    43 1   
    13     6     7 1   
    14     6    27 1   
    15     6    28 1   
    16     7     8 1   
    17     7     9 1   
    18     7    29 1   
    19     8    16 1   
    20     9    10 1   
    21     9    15 1   
    22     9    30 1   
    23    10    11 1   
    24    10    20 1   
    25    10    31 1   
    26    11    12 1   
    27    11    21 1   
    28    11    32 1   
    29    12    13 1   
    30    12    22 1   
    31    12    33 1   
    32    13    23 1   
    33    13    34 1   
    34    13    35 1   
    35    15    36 1   
    36    16    17 2   
    37    16    18 1   
    38    18    37 1   
    39    18    38 1   
    40    18    39 1   
    41    21    40 1   
    42    22    41 1   
    43    23    42 1   
    44    43    44 1   
@<TRIPOS>SUBSTRUCTURE
     1 PKM         1 TEMP              0 ****  ****    0 ROOT
