@<TRIPOS>MOLECULE
PKM
   44    44     1     0     0
SMALL
No Charge or Current Charge


@<TRIPOS>ATOM
      1 C1          -0.1930    -2.9950    -0.6470 c          1 PKM       0.691000
      2 C10          1.5020     2.9950    -0.1920 c          1 PKM       0.603100
      3 C11          1.7040     4.0020    -1.3170 c3         1 PKM      -0.182100
      4 O1B         -0.2660    -4.2130    -0.5010 o          1 PKM      -0.702000
      5 C2          -0.1340    -2.1750     0.7470 c6         1 PKM       0.261000
      6 C3           1.2920    -1.6330     1.0200 c6         1 PKM      -0.099400
      7 C4           1.6070    -0.4160     0.1140 c6         1 PKM       0.164300
      8 O4           2.9300     0.0950     0.3910 os         1 PKM      -0.454100
      9 C5           0.5420     0.6980     0.3250 c6         1 PKM       0.073700
     10 C6          -0.8730     0.0990     0.0630 c6         1 PKM       0.166300
     11 C7          -2.0230     1.0930     0.4500 c3         1 PKM       0.148300
     12 C8          -3.3590     0.8180    -0.3080 c3         1 PKM       0.136300
     13 C9          -4.5120     1.7690     0.1160 c3         1 PKM       0.124600
     14 O10          1.9110     3.1880     0.9430 o          1 PKM      -0.609100
     15 N5           0.8080     1.8630    -0.5530 ns         1 PKM      -0.497900
     16 C            4.0500    -0.5690    -0.0320 c          1 PKM       0.591100
     17 O            4.0370    -1.5790    -0.7210 o          1 PKM      -0.487000
     18 CH3          5.3220     0.1540     0.3870 c3         1 PKM      -0.159100
     19 O1          -0.7440    -2.4800    -1.6120 o          1 PKM      -0.702000
     20 O6          -1.0850    -1.0850     0.8930 os         1 PKM      -0.508000
     21 O7          -2.2390     0.9990     1.8700 oh         1 PKM      -0.726000
     22 O8          -3.1700     0.9750    -1.7250 oh         1 PKM      -0.620000
     23 O9          -5.6620     1.5570    -0.7260 oh         1 PKM      -0.707000
     24 H113         0.7290     4.2560    -1.7490 hc         1 PKM       0.051367
     25 H112         2.2480     4.8960    -0.9930 hc         1 PKM       0.051367
     26 H111         2.2060     3.5040    -2.1550 hc         1 PKM       0.051367
     27 H32          1.3830    -1.3330     2.0730 hc         1 PKM       0.055200
     28 H31          2.0250    -2.4350     0.8600 hc         1 PKM       0.055200
     29 H4           1.5680    -0.7270    -0.9420 h1         1 PKM       0.105700
     30 H5           0.5870     1.0270     1.3740 h1         1 PKM       0.102700
     31 H6          -0.9650    -0.1540    -1.0010 h1         1 PKM       0.081700
     32 H7          -1.7070     2.1130     0.1890 h1         1 PKM       0.053700
     33 H8          -3.6730    -0.2120    -0.0810 h1         1 PKM       0.110700
     34 H92         -4.7740     1.5790     1.1650 h1         1 PKM       0.020200
     35 H91         -4.1720     2.8100     0.0390 h1         1 PKM       0.020200
     36 HN5          0.5140     1.8150    -1.5220 hn         1 PKM       0.310500
     37 H14          5.3300     0.2510     1.4780 hc         1 PKM       0.060033
     38 H16          6.2290    -0.3340     0.0130 hc         1 PKM       0.060033
     39 H15          5.2590     1.1990     0.0630 hc         1 PKM       0.060033
     40 HO7         -1.9320     0.0770     2.0740 ho         1 PKM       0.526000
     41 HO8         -4.0730     1.1720    -2.0650 ho         1 PKM       0.420000
     42 HO9         -6.3860     2.1280    -0.3770 ho         1 PKM       0.487000
     43 O2          -0.4720    -3.0730     1.8120 oh         1 PKM      -0.679000
     44 H1          -0.5470    -3.9360     1.3320 ho         1 PKM       0.492000
@<TRIPOS>BOND
     1     1     4 1   
     2     1     5 1   
     3     1    19 1   
     4     2     3 1   
     5     2    14 2   
     6     2    15 1   
     7     3    24 1   
     8     3    25 1   
     9     3    26 1   
    10     5     6 1   
    11     5    20 1   
    12     5    43 1   
    13     6     7 1   
    14     6    27 1   
    15     6    28 1   
    16     7     8 1   
    17     7     9 1   
    18     7    29 1   
    19     8    16 1   
    20     9    10 1   
    21     9    15 1   
    22     9    30 1   
    23    10    11 1   
    24    10    20 1   
    25    10    31 1   
    26    11    12 1   
    27    11    21 1   
    28    11    32 1   
    29    12    13 1   
    30    12    22 1   
    31    12    33 1   
    32    13    23 1   
    33    13    34 1   
    34    13    35 1   
    35    15    36 1   
    36    16    17 2   
    37    16    18 1   
    38    18    37 1   
    39    18    38 1   
    40    18    39 1   
    41    21    40 1   
    42    22    41 1   
    43    23    42 1   
    44    43    44 1   
@<TRIPOS>SUBSTRUCTURE
     1 PKM         1 TEMP              0 ****  ****    0 ROOT
