@<TRIPOS>MOLECULE
PKN
   12    12     1     0     0
SMALL
No Charge or Current Charge


@<TRIPOS>ATOM
      1 N           16.9860    -8.2570     5.6160 na         1 PKN      -0.148000
      2 C           19.2150    -6.6090     8.0350 c          1 PKN       0.723600
      3 O           20.4160    -6.3950     7.9510 o          1 PKN      -0.741000
      4 C1          18.5270    -7.3040     6.9050 cc         1 PKN      -0.177600
      5 C2          19.1370    -7.7530     5.7130 cc         1 PKN      -0.141000
      6 C3          18.1960    -8.3410     4.9150 cd         1 PKN      -0.271000
      7 C4          17.1900    -7.6170     6.8450 cd         1 PKN      -0.192000
      8 O1          18.5560    -6.2750     9.0100 o          1 PKN      -0.741000
      9 H1          16.0910    -8.6090     5.2830 hn         1 PKN       0.308000
     10 H2          20.1940    -7.6420     5.4820 ha         1 PKN       0.128000
     11 H3          18.2840    -8.7980     3.9360 h4         1 PKN       0.111000
     12 H4          16.3930    -7.4390     7.5590 h4         1 PKN       0.140000
@<TRIPOS>BOND
     1     1     6 1   
     2     1     7 1   
     3     1     9 1   
     4     2     3 1   
     5     2     4 1   
     6     2     8 1   
     7     4     5 1   
     8     4     7 2   
     9     5     6 2   
    10     5    10 1   
    11     6    11 1   
    12     7    12 1   
@<TRIPOS>SUBSTRUCTURE
     1 PKN         1 TEMP              0 ****  ****    0 ROOT
