@<TRIPOS>MOLECULE
PKN
   12    12     1     0     0
SMALL
abcg2


@<TRIPOS>ATOM
      1 N           17.0000    -8.2510     5.6250 na         1 PKN      -0.148000
      2 C           19.2140    -6.5990     8.0570 c          1 PKN       0.723600
      3 O           20.4530    -6.3800     7.9600 o          1 PKN      -0.741000
      4 C1          18.5480    -7.2980     6.9090 cc         1 PKN      -0.177600
      5 C2          19.1590    -7.7550     5.7000 cc         1 PKN      -0.141000
      6 C3          18.1810    -8.3380     4.9300 cd         1 PKN      -0.271000
      7 C4          17.2070    -7.6250     6.8190 cd         1 PKN      -0.192000
      8 O1          18.4900    -6.2780     9.0410 o          1 PKN      -0.741000
      9 H1          16.1110    -8.5950     5.2990 hn         1 PKN       0.308000
     10 H2          20.2010    -7.6600     5.4400 ha         1 PKN       0.128000
     11 H3          18.2220    -8.8010     3.9580 h4         1 PKN       0.111000
     12 H4          16.4000    -7.4590     7.5120 h4         1 PKN       0.140000
@<TRIPOS>BOND
     1     1     6 1   
     2     1     7 1   
     3     1     9 1   
     4     2     3 1   
     5     2     4 1   
     6     2     8 1   
     7     4     5 1   
     8     4     7 2   
     9     5     6 2   
    10     5    10 1   
    11     6    11 1   
    12     7    12 1   
@<TRIPOS>SUBSTRUCTURE
     1 PKN         1 TEMP              0 ****  ****    0 ROOT
