@<TRIPOS>MOLECULE
PKP
   45    48     1     0     0
SMALL
abcg2


@<TRIPOS>ATOM
      1 C10          1.4340    29.8160    27.3550 c6         1 PKP      -0.176400
      2 C13         -0.0700    25.3250    23.7330 ca         1 PKP      -0.100500
      3 C20         -0.5500    24.6330    16.8360 ca         1 PKP      -0.098000
      4 C21         -1.3590    23.5110    16.6640 ca         1 PKP       0.114000
      5 C24         -1.8980    23.5190    18.9620 ca         1 PKP      -0.199000
      6 C26         -1.8910    26.8180    23.2070 ca         1 PKP      -0.100500
      7 C01          3.0150    31.7540    27.2830 c3         1 PKP      -0.088600
      8 C02          2.5520    30.4920    26.5610 c6         1 PKP      -0.031000
      9 C03          3.7410    29.5410    26.4040 c3         1 PKP      -0.088600
     10 C04          1.9890    30.8770    25.1900 c6         1 PKP      -0.084200
     11 C05          1.2460    29.7660    24.5230 c2         1 PKP       0.159900
     12 C07          0.7060    28.7180    25.1890 ce         1 PKP      -0.236400
     13 C08          0.8130    28.6410    26.6400 c          1 PKP       0.592300
     14 C11          0.0060    27.6270    24.4760 ca         1 PKP      -0.001800
     15 C12          0.5720    26.3570    24.4000 ca         1 PKP      -0.080000
     16 C14         -1.2970    25.5720    23.1450 ca         1 PKP       0.089100
     17 C16         -1.7750    24.3790    21.2160 cc         1 PKP       0.608500
     18 C18         -1.0910    24.6490    19.1690 ca         1 PKP       0.129400
     19 C19         -0.4140    25.2040    18.0880 ca         1 PKP      -0.060000
     20 C23         -2.0480    22.9320    17.7160 ca         1 PKP      -0.056000
     21 C27         -1.2330    27.8400    23.8770 ca         1 PKP      -0.080000
     22 N17         -1.0450    25.1110    20.4650 nd         1 PKP      -0.609100
     23 O06          1.1040    29.8280    23.2030 oh         1 PKP      -0.509100
     24 O09          0.3730    27.6850    27.2610 o          1 PKP      -0.526100
     25 O15         -1.9650    24.5270    22.5170 os         1 PKP      -0.305700
     26 S25         -2.6160    23.0410    20.4710 ss         1 PKP       0.063800
     27 H1           0.6300    30.5410    27.5360 hc         1 PKP       0.072200
     28 H2           1.7930    29.4900    28.3340 hc         1 PKP       0.072200
     29 H3           0.3770    24.3400    23.6780 ha         1 PKP       0.126500
     30 H4          -0.0260    25.0560    15.9900 ha         1 PKP       0.132000
     31 H5          -2.8560    26.9940    22.7480 ha         1 PKP       0.126500
     32 H6           3.4160    31.5140    28.2690 hc         1 PKP       0.040367
     33 H7           3.8040    32.2560    26.7180 hc         1 PKP       0.040367
     34 H8           2.1960    32.4630    27.4180 hc         1 PKP       0.040367
     35 H9           4.1290    29.2500    27.3810 hc         1 PKP       0.040367
     36 H10          3.4780    28.6270    25.8690 hc         1 PKP       0.040367
     37 H11          4.5500    30.0230    25.8530 hc         1 PKP       0.040367
     38 H12          2.8000    31.2190    24.5380 hc         1 PKP       0.061200
     39 H13          1.3010    31.7250    25.2930 hc         1 PKP       0.061200
     40 H14          1.5370    26.1690    24.8540 ha         1 PKP       0.117000
     41 H15          0.2140    26.0740    18.2270 ha         1 PKP       0.136000
     42 H16         -2.6710    22.0610    17.5690 ha         1 PKP       0.139000
     43 H17         -1.6970    28.8160    23.9340 ha         1 PKP       0.117000
     44 H18          1.5520    30.6040    22.8420 ho         1 PKP       0.468000
     45 CL22        -1.5060    22.8170    15.0830 cl         1 PKP      -0.200000
@<TRIPOS>BOND
     1     1     8 1   
     2     1    13 1   
     3     1    27 1   
     4     1    28 1   
     5     2    15 ar  
     6     2    16 ar  
     7     2    29 1   
     8     3     4 ar  
     9     3    19 ar  
    10     3    30 1   
    11     4    20 ar  
    12     4    45 1   
    13     5    18 ar  
    14     5    20 ar  
    15     5    26 1   
    16     6    16 ar  
    17     6    21 ar  
    18     6    31 1   
    19     7     8 1   
    20     7    32 1   
    21     7    33 1   
    22     7    34 1   
    23     8     9 1   
    24     8    10 1   
    25     9    35 1   
    26     9    36 1   
    27     9    37 1   
    28    10    11 1   
    29    10    38 1   
    30    10    39 1   
    31    11    12 2   
    32    11    23 1   
    33    12    13 1   
    34    12    14 1   
    35    13    24 2   
    36    14    15 ar  
    37    14    21 ar  
    38    15    40 1   
    39    16    25 1   
    40    17    22 2   
    41    17    25 1   
    42    17    26 1   
    43    18    19 ar  
    44    18    22 1   
    45    19    41 1   
    46    20    42 1   
    47    21    43 1   
    48    23    44 1   
@<TRIPOS>SUBSTRUCTURE
     1 PKP         1 TEMP              0 ****  ****    0 ROOT
