@<TRIPOS>MOLECULE
PKP
   45    48     1     0     0
SMALL
No Charge or Current Charge


@<TRIPOS>ATOM
      1 C10          1.2170    30.0080    27.2540 c6         1 PKP      -0.176400
      2 C13          0.0520    25.0290    24.0930 ca         1 PKP      -0.100500
      3 C20         -0.7480    24.9250    16.8430 ca         1 PKP      -0.098000
      4 C21         -1.7150    23.9310    16.5840 ca         1 PKP       0.114000
      5 C24         -2.0270    23.6450    18.9640 ca         1 PKP      -0.199000
      6 C26         -1.5510    26.4930    22.9910 ca         1 PKP      -0.100500
      7 C01          2.8620    31.9490    27.1710 c3         1 PKP      -0.088600
      8 C02          2.4610    30.5880    26.5300 c6         1 PKP      -0.031000
      9 C03          3.6800    29.6270    26.6850 c3         1 PKP      -0.088600
     10 C04          2.1060    30.7880    25.0290 c6         1 PKP      -0.084200
     11 C05          1.4280    29.5700    24.4050 c2         1 PKP       0.159900
     12 C07          0.7740    28.6250    25.1210 ce         1 PKP      -0.236400
     13 C08          0.7100    28.7070    26.6180 c          1 PKP       0.592300
     14 C11          0.1470    27.4400    24.4680 ca         1 PKP      -0.001800
     15 C12          0.6460    26.1450    24.7090 ca         1 PKP      -0.080000
     16 C14         -1.0300    25.2010    23.2140 ca         1 PKP       0.089100
     17 C16         -1.6450    24.0860    21.2800 cc         1 PKP       0.608500
     18 C18         -1.0800    24.6190    19.2320 ca         1 PKP       0.129400
     19 C19         -0.4280    25.2710    18.1720 ca         1 PKP      -0.060000
     20 C23         -2.3640    23.2810    17.6500 ca         1 PKP      -0.056000
     21 C27         -0.9550    27.6070    23.6080 ca         1 PKP      -0.080000
     22 N17         -0.8310    24.8910    20.5710 nd         1 PKP      -0.609100
     23 O06          1.5360    29.5280    23.0650 oh         1 PKP      -0.509100
     24 O09          0.2760    27.8000    27.3170 o          1 PKP      -0.526100
     25 O15         -1.6290    24.0800    22.6670 os         1 PKP      -0.305700
     26 S25         -2.7150    22.9540    20.4280 ss         1 PKP       0.063800
     27 H1           0.4060    30.7360    27.1210 hc         1 PKP       0.072200
     28 H2           1.3660    29.8670    28.3330 hc         1 PKP       0.072200
     29 H3           0.4350    24.0320    24.2920 ha         1 PKP       0.126500
     30 H4          -0.2490    25.4240    16.0170 ha         1 PKP       0.132000
     31 H5          -2.4120    26.6330    22.3420 ha         1 PKP       0.126500
     32 H6           3.1180    31.8340    28.2310 hc         1 PKP       0.040367
     33 H7           3.7310    32.3890    26.6670 hc         1 PKP       0.040367
     34 H8           2.0440    32.6780    27.1100 hc         1 PKP       0.040367
     35 H9           3.9230    29.4570    27.7410 hc         1 PKP       0.040367
     36 H10          3.4920    28.6460    26.2320 hc         1 PKP       0.040367
     37 H11          4.5770    30.0370    26.2040 hc         1 PKP       0.040367
     38 H12          3.0150    31.0530    24.4710 hc         1 PKP       0.061200
     39 H13          1.4260    31.6460    24.9240 hc         1 PKP       0.061200
     40 H14          1.4920    26.0040    25.3770 ha         1 PKP       0.117000
     41 H15          0.3170    26.0350    18.3780 ha         1 PKP       0.136000
     42 H16         -3.1090    22.5130    17.4550 ha         1 PKP       0.139000
     43 H17         -1.3530    28.6020    23.4240 ha         1 PKP       0.117000
     44 H18          2.0290    30.3240    22.7770 ho         1 PKP       0.468000
     45 Cl22        -2.1090    23.5040    14.9240 cl         1 PKP      -0.200000
@<TRIPOS>BOND
     1     1     8 1   
     2     1    13 1   
     3     1    27 1   
     4     1    28 1   
     5     2    15 ar  
     6     2    16 ar  
     7     2    29 1   
     8     3     4 ar  
     9     3    19 ar  
    10     3    30 1   
    11     4    20 ar  
    12     4    45 1   
    13     5    18 ar  
    14     5    20 ar  
    15     5    26 1   
    16     6    16 ar  
    17     6    21 ar  
    18     6    31 1   
    19     7     8 1   
    20     7    32 1   
    21     7    33 1   
    22     7    34 1   
    23     8     9 1   
    24     8    10 1   
    25     9    35 1   
    26     9    36 1   
    27     9    37 1   
    28    10    11 1   
    29    10    38 1   
    30    10    39 1   
    31    11    12 2   
    32    11    23 1   
    33    12    13 1   
    34    12    14 1   
    35    13    24 2   
    36    14    15 ar  
    37    14    21 ar  
    38    15    40 1   
    39    16    25 1   
    40    17    22 2   
    41    17    25 1   
    42    17    26 1   
    43    18    19 ar  
    44    18    22 1   
    45    19    41 1   
    46    20    42 1   
    47    21    43 1   
    48    23    44 1   
@<TRIPOS>SUBSTRUCTURE
     1 PKP         1 TEMP              0 ****  ****    0 ROOT
