@<TRIPOS>MOLECULE
PKQ
   35    37     1     0     0
SMALL
abcg2


@<TRIPOS>ATOM
      1 CAA        -20.6900     1.4250    -6.8450 cc         1 PKQ       0.095900
      2 CAC        -20.7470     0.0590    -6.9420 cd         1 PKQ      -0.218400
      3 CAD        -21.0490    -0.2450    -8.3310 ca         1 PKQ      -0.112800
      4 CAE        -21.1840     0.9930    -8.9630 ca         1 PKQ       0.089100
      5 CAF        -20.4770    -0.9430    -5.9080 c          1 PKQ       0.621900
      6 CAG        -20.8700    -0.6620    -4.5000 ca         1 PKQ      -0.207600
      7 CAH        -20.1120    -1.1990    -3.4600 ca         1 PKQ       0.008500
      8 CAI        -22.0140     0.0790    -4.2030 ca         1 PKQ       0.008500
      9 CAJ        -20.4810    -0.9650    -2.1510 ca         1 PKQ      -0.100900
     10 CAK        -22.3870     0.2820    -2.8880 ca         1 PKQ      -0.100900
     11 CAL        -21.6280    -0.2230    -1.8250 ca         1 PKQ       0.213100
     12 CAQ        -21.2530    -1.4010    -9.0850 ca         1 PKQ      -0.012000
     13 CAR        -21.5780    -1.2710   -10.4280 ca         1 PKQ      -0.210000
     14 CAS        -21.5090     1.1620   -10.2940 ca         1 PKQ      -0.140000
     15 CAT        -21.7040    -0.0070   -11.0260 ca         1 PKQ       0.151100
     16 CAU        -20.3200     2.3800    -5.7700 c3         1 PKQ      -0.027200
     17 CAV        -19.0910     3.2280    -6.1310 c3         1 PKQ      -0.086100
     18 OAB        -20.9520     2.0020    -8.0630 os         1 PKQ      -0.181200
     19 OAM        -19.9630    -2.0200    -6.2000 o          1 PKQ      -0.521100
     20 OAO        -22.0250     0.0180    -0.5670 oh         1 PKQ      -0.502100
     21 OAW        -22.0210     0.1320   -12.3470 oh         1 PKQ      -0.534100
     22 BRA        -19.4160    -1.6620    -0.7260 br         1 PKQ      -0.078600
     23 BRB        -23.9700     1.2730    -2.5110 br         1 PKQ      -0.078600
     24 H1         -19.2300    -1.7820    -3.6820 ha         1 PKQ       0.147000
     25 H2         -22.6210     0.4860    -4.9980 ha         1 PKQ       0.147000
     26 H3         -21.1570    -2.3800    -8.6380 ha         1 PKQ       0.137000
     27 H4         -21.7380    -2.1540   -11.0350 ha         1 PKQ       0.118000
     28 H5         -21.6100     2.1370   -10.7520 ha         1 PKQ       0.148000
     29 H6         -21.1740     3.0350    -5.5740 hc         1 PKQ       0.067700
     30 H7         -20.1280     1.8240    -4.8560 hc         1 PKQ       0.067700
     31 H8         -18.8600     3.9080    -5.3100 hc         1 PKQ       0.045700
     32 H9         -18.2220     2.5920    -6.3060 hc         1 PKQ       0.045700
     33 H10        -19.2700     3.8210    -7.0280 hc         1 PKQ       0.045700
     34 H11        -21.4080    -0.3880     0.0650 ho         1 PKQ       0.487000
     35 H12        -22.1440    -0.7390   -12.7490 ho         1 PKQ       0.466000
@<TRIPOS>BOND
     1     1     2 2   
     2     1    16 1   
     3     1    18 1   
     4     2     3 1   
     5     2     5 1   
     6     3     4 ar  
     7     3    12 ar  
     8     4    14 ar  
     9     4    18 1   
    10     5     6 1   
    11     5    19 2   
    12     6     7 ar  
    13     6     8 ar  
    14     7     9 ar  
    15     7    24 1   
    16     8    10 ar  
    17     8    25 1   
    18     9    11 ar  
    19     9    22 1   
    20    10    11 ar  
    21    10    23 1   
    22    11    20 1   
    23    12    13 ar  
    24    12    26 1   
    25    13    15 ar  
    26    13    27 1   
    27    14    15 ar  
    28    14    28 1   
    29    15    21 1   
    30    16    17 1   
    31    16    29 1   
    32    16    30 1   
    33    17    31 1   
    34    17    32 1   
    35    17    33 1   
    36    20    34 1   
    37    21    35 1   
@<TRIPOS>SUBSTRUCTURE
     1 PKQ         1 TEMP              0 ****  ****    0 ROOT
