@<TRIPOS>MOLECULE
PKQ
   35    37     1     0     0
SMALL
No Charge or Current Charge


@<TRIPOS>ATOM
      1 CAA        -20.7500     1.2730    -6.8340 cc         1 PKQ       0.095900
      2 CAC        -21.0300    -0.0810    -7.0130 cd         1 PKQ      -0.218400
      3 CAD        -21.1600    -0.3000    -8.4300 ca         1 PKQ      -0.112800
      4 CAE        -20.9740     0.9310    -8.9980 ca         1 PKQ       0.089100
      5 CAF        -21.1420    -1.1350    -5.9570 c          1 PKQ       0.621900
      6 CAG        -21.1970    -0.7270    -4.5170 ca         1 PKQ      -0.207600
      7 CAH        -20.2100    -1.1780    -3.6200 ca         1 PKQ       0.008500
      8 CAI        -22.2590     0.0700    -4.0470 ca         1 PKQ       0.008500
      9 CAJ        -20.2650    -0.8020    -2.2660 ca         1 PKQ      -0.100900
     10 CAK        -22.3120     0.4470    -2.6940 ca         1 PKQ      -0.100900
     11 CAL        -21.3140     0.0150    -1.8000 ca         1 PKQ       0.213100
     12 CAQ        -21.4280    -1.4420    -9.2020 ca         1 PKQ      -0.012000
     13 CAR        -21.4950    -1.2840   -10.6040 ca         1 PKQ      -0.210000
     14 CAS        -21.0370     1.1120   -10.3840 ca         1 PKQ      -0.140000
     15 CAT        -21.2990    -0.0120   -11.1890 ca         1 PKQ       0.151100
     16 CAU        -20.4030     2.1020    -5.6140 c3         1 PKQ      -0.027200
     17 CAV        -19.5290     3.3390    -5.9120 c3         1 PKQ      -0.086100
     18 OAB        -20.7330     1.9200    -8.0730 os         1 PKQ      -0.181200
     19 OAM        -21.2180    -2.3250    -6.2350 o          1 PKQ      -0.521100
     20 OAO        -21.3640     0.3810    -0.4850 oh         1 PKQ      -0.502100
     21 OAW        -21.3660     0.1310   -12.5420 oh         1 PKQ      -0.534100
     22 BrA        -18.8920    -1.4200    -1.0750 br         1 PKQ      -0.078600
     23 BrB        -23.7610     1.5560    -2.0980 br         1 PKQ      -0.078600
     24 H1         -19.3980    -1.8110    -3.9730 ha         1 PKQ       0.147000
     25 H2         -23.0390     0.4020    -4.7310 ha         1 PKQ       0.147000
     26 H3         -21.5820    -2.4180    -8.7480 ha         1 PKQ       0.137000
     27 H4         -21.6990    -2.1510   -11.2270 ha         1 PKQ       0.118000
     28 H5         -20.8870     2.0940   -10.8240 ha         1 PKQ       0.148000
     29 H6         -21.3240     2.4370    -5.1240 hc         1 PKQ       0.067700
     30 H7         -19.8570     1.4890    -4.8890 hc         1 PKQ       0.067700
     31 H8         -19.2770     3.8610    -4.9820 hc         1 PKQ       0.045700
     32 H9         -18.5950     3.0440    -6.4040 hc         1 PKQ       0.045700
     33 H10        -20.0580     4.0450    -6.5640 hc         1 PKQ       0.045700
     34 H11        -20.5910    -0.0210    -0.0340 ho         1 PKQ       0.487000
     35 H12        -21.5550    -0.7480   -12.9370 ho         1 PKQ       0.466000
@<TRIPOS>BOND
     1     1     2 2   
     2     1    16 1   
     3     1    18 1   
     4     2     3 1   
     5     2     5 1   
     6     3     4 ar  
     7     3    12 ar  
     8     4    14 ar  
     9     4    18 1   
    10     5     6 1   
    11     5    19 2   
    12     6     7 ar  
    13     6     8 ar  
    14     7     9 ar  
    15     7    24 1   
    16     8    10 ar  
    17     8    25 1   
    18     9    11 ar  
    19     9    22 1   
    20    10    11 ar  
    21    10    23 1   
    22    11    20 1   
    23    12    13 ar  
    24    12    26 1   
    25    13    15 ar  
    26    13    27 1   
    27    14    15 ar  
    28    14    28 1   
    29    15    21 1   
    30    16    17 1   
    31    16    29 1   
    32    16    30 1   
    33    17    31 1   
    34    17    32 1   
    35    17    33 1   
    36    20    34 1   
    37    21    35 1   
@<TRIPOS>SUBSTRUCTURE
     1 PKQ         1 TEMP              0 ****  ****    0 ROOT
