@<TRIPOS>MOLECULE
PKR
   19    19     1     0     0
SMALL
No Charge or Current Charge


@<TRIPOS>ATOM
      1 N            0.9640     0.7050     0.1430 n3         1 PKR      -0.679600
      2 CA          -0.0370    -0.2160    -0.4910 c5         1 PKR       0.038500
      3 C           -1.5700     0.0090    -0.1380 c          1 PKR       0.724000
      4 O           -1.9570    -0.0700     1.0230 o          1 PKR      -0.728000
      5 CB           0.4470    -1.6220    -0.0030 c5         1 PKR      -0.059400
      6 CG           1.9400    -1.3950     0.4000 c5         1 PKR      -0.083400
      7 CD           2.2460     0.0320    -0.1220 c5         1 PKR       0.155800
      8 C6           0.8880     2.1140    -0.2890 c3         1 PKR       0.172100
      9 OXT         -2.3480     0.2780    -1.0470 o          1 PKR      -0.728000
     10 HA           0.0640    -0.1610    -1.5850 h1         1 PKR       0.005700
     11 HB2         -0.1270    -1.9920     0.8540 hc         1 PKR       0.041200
     12 HB3          0.3460    -2.3700    -0.7980 hc         1 PKR       0.041200
     13 HG2          2.0600    -1.4450     1.4890 hc         1 PKR       0.020700
     14 HG3          2.6100    -2.1450    -0.0330 hc         1 PKR       0.020700
     15 HD2          2.4810     0.0250    -1.1960 h1         1 PKR       0.005200
     16 HD3          3.0840     0.4980     0.4140 h1         1 PKR       0.005200
     17 HC          -0.0940     2.5410    -0.0470 h1         1 PKR       0.016033
     18 HE           1.6560     2.7140     0.2180 h1         1 PKR       0.016033
     19 HF           1.0440     2.1980    -1.3730 h1         1 PKR       0.016033
@<TRIPOS>BOND
     1     1     2 1   
     2     1     7 1   
     3     1     8 1   
     4     2     3 1   
     5     2     5 1   
     6     2    10 1   
     7     3     4 1   
     8     3     9 1   
     9     5     6 1   
    10     5    11 1   
    11     5    12 1   
    12     6     7 1   
    13     6    13 1   
    14     6    14 1   
    15     7    15 1   
    16     7    16 1   
    17     8    17 1   
    18     8    18 1   
    19     8    19 1   
@<TRIPOS>SUBSTRUCTURE
     1 PKR         1 TEMP              0 ****  ****    0 ROOT
