@<TRIPOS>MOLECULE
PKR
   19    19     1     0     0
SMALL
abcg2


@<TRIPOS>ATOM
      1 N            0.9100     0.6850     0.1930 n3         1 PKR      -0.679600
      2 CA          -0.0330    -0.1900    -0.4750 c5         1 PKR       0.038500
      3 C           -1.5160     0.0470    -0.1490 c          1 PKR       0.724000
      4 O           -1.8000     0.7100     0.8650 o          1 PKR      -0.728000
      5 CB           0.4240    -1.5890    -0.0260 c5         1 PKR      -0.059400
      6 CG           1.9300    -1.4270     0.2660 c5         1 PKR      -0.083400
      7 CD           2.2000     0.0540    -0.0020 c5         1 PKR       0.155800
      8 C6           0.8740     2.0500    -0.2630 c3         1 PKR       0.172100
      9 OXT         -2.3190    -0.5010    -0.9330 o          1 PKR      -0.728000
     10 HA           0.0940    -0.1210    -1.5730 h1         1 PKR       0.005700
     11 HB2         -0.1100    -1.8930     0.8770 hc         1 PKR       0.041200
     12 HB3          0.2180    -2.3380    -0.7890 hc         1 PKR       0.041200
     13 HG2          2.1530    -1.6820     1.3020 hc         1 PKR       0.020700
     14 HG3          2.5500    -2.0650    -0.3620 hc         1 PKR       0.020700
     15 HD2          2.5660     0.1900    -1.0350 h1         1 PKR       0.005200
     16 HD3          2.9550     0.4850     0.6620 h1         1 PKR       0.005200
     17 HC          -0.1010     2.4910    -0.0590 h1         1 PKR       0.016033
     18 HE           1.6240     2.6430     0.2640 h1         1 PKR       0.016033
     19 HF           1.0760     2.1480    -1.3430 h1         1 PKR       0.016033
@<TRIPOS>BOND
     1     1     2 1   
     2     1     7 1   
     3     1     8 1   
     4     2     3 1   
     5     2     5 1   
     6     2    10 1   
     7     3     4 1   
     8     3     9 1   
     9     5     6 1   
    10     5    11 1   
    11     5    12 1   
    12     6     7 1   
    13     6    13 1   
    14     6    14 1   
    15     7    15 1   
    16     7    16 1   
    17     8    17 1   
    18     8    18 1   
    19     8    19 1   
@<TRIPOS>SUBSTRUCTURE
     1 PKR         1 TEMP              0 ****  ****    0 ROOT
