@<TRIPOS>MOLECULE
PKS
   63    63     1     0     0
SMALL
bcc


@<TRIPOS>ATOM
      1 CBB         -5.9140    -1.5330    -1.3190 c3         1 PKS      -0.081100
      2 CAA          7.1020     0.7470     0.5700 ca         1 PKS       0.202100
      3 CAB          7.1750    -0.6290     0.7100 ca         1 PKS      -0.379300
      4 CAC          6.1500    -1.3850     0.1470 ca         1 PKS       0.684600
      5 CAE          5.0770     0.4650    -0.6370 ca         1 PKS       0.489600
      6 CAF          6.0220     1.3360    -0.1130 ca         1 PKS      -0.253600
      7 CAV         -6.4660    -0.1480     0.7220 c3         1 PKS       0.187300
      8 CAW         -7.9230    -0.0300     0.3340 c2         1 PKS      -0.148400
      9 CAX         -8.7870    -0.9590     0.7500 c2         1 PKS      -0.148200
     10 CAY        -10.2530    -1.0450     0.4760 c3         1 PKS      -0.056900
     11 CAZ         -8.2860     1.1480    -0.5220 c3         1 PKS      -0.052900
     12 CAU         -5.5340    -0.3040    -0.4940 c3         1 PKS      -0.057500
     13 CAS         -4.1170    -0.4130    -0.0230 c2         1 PKS      -0.152200
     14 CAR         -3.0750     0.3850    -0.3060 ce         1 PKS      -0.073200
     15 CAT         -3.1510     1.5910    -1.1960 c3         1 PKS      -0.054900
     16 CAQ         -1.7780     0.0680     0.2940 ce         1 PKS      -0.133000
     17 CAP         -0.6560     0.7790     0.1590 c2         1 PKS      -0.155200
     18 CAN          0.6540     0.4390     0.8010 c3         1 PKS      -0.010000
     19 CAM          1.7310     0.1920    -0.2310 c2         1 PKS      -0.091400
     20 CAO          1.6110    -1.0950    -0.9910 c3         1 PKS      -0.053900
     21 CAL          2.7050     1.0870    -0.4080 c2         1 PKS      -0.176200
     22 CAK          3.8580     0.9730    -1.3650 c3         1 PKS      -0.090500
     23 CAJ          5.9050     2.8270    -0.2670 c3         1 PKS      -0.025800
     24 NAD          5.1410    -0.8650    -0.5090 nb         1 PKS      -0.780000
     25 OAH          6.2250    -2.7140     0.2940 os         1 PKS      -0.439100
     26 CAI          5.1840    -3.5020    -0.2620 c3         1 PKS       0.137700
     27 OAG          8.0430     1.5570     1.0720 oh         1 PKS      -0.487100
     28 H1          -5.2340    -1.6540    -2.1620 hc         1 PKS       0.038033
     29 H2          -5.8670    -2.4430    -0.7160 hc         1 PKS       0.038033
     30 H3          -6.9270    -1.4510    -1.7130 hc         1 PKS       0.038033
     31 H4           7.9970    -1.1040     1.2330 ha         1 PKS       0.154000
     32 H6          -6.3500    -1.0420     1.3450 h1         1 PKS       0.070700
     33 H7          -8.3910    -1.7700     1.3560 ha         1 PKS       0.116000
     34 H8         -10.8150    -1.1360     1.4090 hc         1 PKS       0.040367
     35 H9         -10.6460    -0.1880    -0.0660 hc         1 PKS       0.040367
     36 H10        -10.4830    -1.9390    -0.1080 hc         1 PKS       0.040367
     37 H11         -7.9420     1.0140    -1.5520 hc         1 PKS       0.038033
     38 H12         -9.3580     1.3240    -0.5640 hc         1 PKS       0.038033
     39 H13         -7.8260     2.0680    -0.1550 hc         1 PKS       0.038033
     40 H14         -5.6510     0.5780    -1.1320 hc         1 PKS       0.050700
     41 H15         -3.9310    -1.2590     0.6370 ha         1 PKS       0.120000
     42 H16         -2.8840     2.4990    -0.6510 hc         1 PKS       0.040033
     43 H17         -2.4460     1.5060    -2.0260 hc         1 PKS       0.040033
     44 H18         -4.1400     1.7400    -1.6200 hc         1 PKS       0.040033
     45 H19         -1.7540    -0.8240     0.9180 ha         1 PKS       0.119000
     46 H21         -0.6500     1.6750    -0.4570 ha         1 PKS       0.120000
     47 H23          0.9600     1.2620     1.4540 hc         1 PKS       0.052200
     48 H24          0.5370    -0.4450     1.4360 hc         1 PKS       0.052200
     49 H25          2.1000    -1.9090    -0.4480 hc         1 PKS       0.042367
     50 H26          0.5640    -1.3750    -1.1190 hc         1 PKS       0.042367
     51 H27          2.0690    -1.0540    -1.9780 hc         1 PKS       0.042367
     52 H28          2.7080     1.9690     0.2270 ha         1 PKS       0.118000
     53 H29          4.0580     1.9420    -1.8240 hc         1 PKS       0.061700
     54 H30          3.6270     0.2770    -2.1710 hc         1 PKS       0.061700
     55 H31          4.9250     3.1870     0.0460 hc         1 PKS       0.043033
     56 H32          6.6440     3.3580     0.3280 hc         1 PKS       0.043033
     57 H33          6.0430     3.1360    -1.3050 hc         1 PKS       0.043033
     58 H34          4.2090    -3.2400     0.1510 h1         1 PKS       0.045033
     59 H35          5.1350    -3.4050    -1.3470 h1         1 PKS       0.045033
     60 H36          5.4190    -4.5320    -0.0040 h1         1 PKS       0.045033
     61 H37          8.7220     1.0470     1.5300 ho         1 PKS       0.432000
     62 OBA         -6.0630     0.9360     1.5400 oh         1 PKS      -0.586800
     63 H5          -5.8880     1.6990     0.9810 ho         1 PKS       0.400000
@<TRIPOS>BOND
     1     1    12 1   
     2     1    28 1   
     3     1    29 1   
     4     1    30 1   
     5     2     3 ar  
     6     2     6 ar  
     7     2    27 1   
     8     3     4 ar  
     9     3    31 1   
    10     4    24 ar  
    11     4    25 1   
    12     5     6 ar  
    13     5    22 1   
    14     5    24 ar  
    15     6    23 1   
    16     7     8 1   
    17     7    12 1   
    18     7    32 1   
    19     7    62 1   
    20     8     9 2   
    21     8    11 1   
    22     9    10 1   
    23     9    33 1   
    24    10    34 1   
    25    10    35 1   
    26    10    36 1   
    27    11    37 1   
    28    11    38 1   
    29    11    39 1   
    30    12    13 1   
    31    12    40 1   
    32    13    14 2   
    33    13    41 1   
    34    14    15 1   
    35    14    16 1   
    36    15    42 1   
    37    15    43 1   
    38    15    44 1   
    39    16    17 2   
    40    16    45 1   
    41    17    18 1   
    42    17    46 1   
    43    18    19 1   
    44    18    47 1   
    45    18    48 1   
    46    19    20 1   
    47    19    21 2   
    48    20    49 1   
    49    20    50 1   
    50    20    51 1   
    51    21    22 1   
    52    21    52 1   
    53    22    53 1   
    54    22    54 1   
    55    23    55 1   
    56    23    56 1   
    57    23    57 1   
    58    25    26 1   
    59    26    58 1   
    60    26    59 1   
    61    26    60 1   
    62    27    61 1   
    63    62    63 1   
@<TRIPOS>SUBSTRUCTURE
     1 PKS         1 TEMP              0 ****  ****    0 ROOT
