@<TRIPOS>MOLECULE
PKS
   63    63     1     0     0
SMALL
No Charge or Current Charge


@<TRIPOS>ATOM
      1 CBB         -5.5640    -1.1100    -1.3140 c3         1 PKS      -0.081100
      2 CAA          6.9500     0.2840     0.8310 ca         1 PKS       0.202100
      3 CAB          7.0110    -1.1060     0.7650 ca         1 PKS      -0.296000
      4 CAC          6.1080    -1.7900    -0.0460 ca         1 PKS       0.619300
      5 CAE          5.0950     0.1870    -0.7100 ca         1 PKS       0.424300
      6 CAF          5.9790     0.9670     0.0760 ca         1 PKS      -0.188300
      7 CAV         -6.5010    -0.2070     0.9050 c3         1 PKS       0.210500
      8 CAW         -7.9640    -0.3800     0.4780 c2         1 PKS      -0.148400
      9 CAX         -8.6490    -1.5040     0.7770 c2         1 PKS      -0.198200
     10 CAY        -10.0730    -1.8690     0.3950 c3         1 PKS      -0.056900
     11 CAZ         -8.5440     0.8080    -0.2930 c3         1 PKS      -0.052900
     12 CAU         -5.5020     0.0310    -0.2710 c3         1 PKS      -0.057500
     13 CAS         -4.0670     0.2010     0.2260 c2         1 PKS      -0.202200
     14 CAR         -3.0510     0.8840    -0.3570 ce         1 PKS      -0.073200
     15 CAT         -3.1840     1.6150    -1.6910 c3         1 PKS      -0.054900
     16 CAQ         -1.7280     0.9120     0.2990 ce         1 PKS      -0.183000
     17 CAP         -0.6400     1.5950    -0.1280 c2         1 PKS      -0.205200
     18 CAN          0.7130     1.6070     0.5550 c3         1 PKS      -0.010000
     19 CAM          1.7590     0.8440    -0.2470 c2         1 PKS      -0.091400
     20 CAO          1.4330    -0.6380    -0.3860 c3         1 PKS      -0.053900
     21 CAL          2.8610     1.4430    -0.7370 c2         1 PKS      -0.226200
     22 CAK          3.9770     0.8040    -1.5570 c3         1 PKS      -0.090500
     23 CAJ          5.8780     2.4980     0.1260 c3         1 PKS      -0.025800
     24 NAD          5.1690    -1.1600    -0.7710 nb         1 PKS      -0.780000
     25 OAH          6.2010    -3.1600    -0.0840 os         1 PKS      -0.462300
     26 CAI          5.2930    -3.9470    -0.8810 c3         1 PKS       0.160900
     27 OAG          7.8280     0.9530     1.6320 oh         1 PKS      -0.526100
     28 H1          -4.8550    -0.9320    -2.1310 hc         1 PKS       0.038033
     29 H2          -5.3140    -2.0730    -0.8510 hc         1 PKS       0.038033
     30 H3          -6.5650    -1.1920    -1.7540 hc         1 PKS       0.038033
     31 H4           7.7460    -1.6680     1.3320 ha         1 PKS       0.136000
     32 H6          -6.1850    -1.1380     1.3990 h1         1 PKS       0.070700
     33 H7          -8.1520    -2.2970     1.3390 ha         1 PKS       0.166000
     34 H8         -10.7500    -1.7420     1.2480 hc         1 PKS       0.040367
     35 H9         -10.4610    -1.2740    -0.4380 hc         1 PKS       0.040367
     36 H10        -10.1280    -2.9190     0.0850 hc         1 PKS       0.040367
     37 H11         -8.1100     0.8830    -1.2970 hc         1 PKS       0.038033
     38 H12         -9.6290     0.7440    -0.4190 hc         1 PKS       0.038033
     39 H13         -8.3560     1.7570     0.2220 hc         1 PKS       0.038033
     40 H14         -5.8060     0.9570    -0.7730 hc         1 PKS       0.050700
     41 H15         -3.8840    -0.3060     1.1740 ha         1 PKS       0.170000
     42 H16         -3.1120     2.7000    -1.5530 hc         1 PKS       0.040033
     43 H17         -2.3930     1.3130    -2.3880 hc         1 PKS       0.040033
     44 H18         -4.1320     1.4160    -2.2000 hc         1 PKS       0.040033
     45 H19         -1.6430     0.3190     1.2120 ha         1 PKS       0.169000
     46 H21         -0.6710     2.2060    -1.0300 ha         1 PKS       0.170000
     47 H23          1.0290     2.6470     0.7030 hc         1 PKS       0.052200
     48 H24          0.6350     1.1790     1.5620 hc         1 PKS       0.052200
     49 H25          1.2600    -1.0950     0.5950 hc         1 PKS       0.042367
     50 H26          0.5280    -0.7910    -0.9870 hc         1 PKS       0.042367
     51 H27          2.2370    -1.2080    -0.8630 hc         1 PKS       0.042367
     52 H28          3.0040     2.5120    -0.5750 ha         1 PKS       0.168000
     53 H29          4.4050     1.5490    -2.2380 hc         1 PKS       0.061700
     54 H30          3.5540     0.0480    -2.2290 hc         1 PKS       0.061700
     55 H31          5.1070     2.8140     0.8380 hc         1 PKS       0.043033
     56 H32          6.8190     2.9690     0.4310 hc         1 PKS       0.043033
     57 H33          5.6290     2.9250    -0.8520 hc         1 PKS       0.043033
     58 H34          4.2550    -3.7910    -0.5610 h1         1 PKS       0.045033
     59 H35          5.3740    -3.6820    -1.9440 h1         1 PKS       0.045033
     60 H36          5.5230    -5.0150    -0.7790 h1         1 PKS       0.045033
     61 H37          8.4100     0.2950     2.0670 ho         1 PKS       0.471000
     62 OBA         -6.4080     0.8620     1.8530 oh         1 PKS      -0.649000
     63 H5          -6.6370     1.6810     1.3680 ho         1 PKS       0.439000
@<TRIPOS>BOND
     1     1    12 1   
     2     1    28 1   
     3     1    29 1   
     4     1    30 1   
     5     2     3 ar  
     6     2     6 ar  
     7     2    27 1   
     8     3     4 ar  
     9     3    31 1   
    10     4    24 ar  
    11     4    25 1   
    12     5     6 ar  
    13     5    22 1   
    14     5    24 ar  
    15     6    23 1   
    16     7     8 1   
    17     7    12 1   
    18     7    32 1   
    19     7    62 1   
    20     8     9 2   
    21     8    11 1   
    22     9    10 1   
    23     9    33 1   
    24    10    34 1   
    25    10    35 1   
    26    10    36 1   
    27    11    37 1   
    28    11    38 1   
    29    11    39 1   
    30    12    13 1   
    31    12    40 1   
    32    13    14 2   
    33    13    41 1   
    34    14    15 1   
    35    14    16 1   
    36    15    42 1   
    37    15    43 1   
    38    15    44 1   
    39    16    17 2   
    40    16    45 1   
    41    17    18 1   
    42    17    46 1   
    43    18    19 1   
    44    18    47 1   
    45    18    48 1   
    46    19    20 1   
    47    19    21 2   
    48    20    49 1   
    49    20    50 1   
    50    20    51 1   
    51    21    22 1   
    52    21    52 1   
    53    22    53 1   
    54    22    54 1   
    55    23    55 1   
    56    23    56 1   
    57    23    57 1   
    58    25    26 1   
    59    26    58 1   
    60    26    59 1   
    61    26    60 1   
    62    27    61 1   
    63    62    63 1   
@<TRIPOS>SUBSTRUCTURE
     1 PKS         1 TEMP              0 ****  ****    0 ROOT
