@<TRIPOS>MOLECULE
PKT
   65    67     1     0     0
SMALL
abcg2


@<TRIPOS>ATOM
      1 C01          3.8280    -3.5880    -0.6180 c3         1 PKT      -0.108767
      2 C02          2.7490    -3.3730     0.4360 c3         1 PKT       0.226000
      3 C03          1.3900    -3.8840    -0.0290 c3         1 PKT      -0.108767
      4 C04          3.1490    -4.0690     1.7320 c3         1 PKT      -0.108767
      5 O05          2.6700    -1.9770     0.8280 os         1 PKT      -0.476100
      6 C06          2.3460    -1.0050    -0.0260 c          1 PKT       0.658100
      7 O07          2.0960    -1.1550    -1.2060 o          1 PKT      -0.563000
      8 N08          2.3330     0.1830     0.6100 ns         1 PKT      -0.497900
      9 C09          2.0130     1.4450    -0.0260 c3         1 PKT       0.159700
     10 C10          0.6330     1.4510    -0.6790 c3         1 PKT       0.047600
     11 S11         -0.5980     0.7540     0.4560 ss         1 PKT      -0.436000
     12 C12         -2.1070     1.2550    -0.4180 c3         1 PKT       0.068600
     13 C13         -3.3100     0.5770     0.2220 c3         1 PKT      -0.148400
     14 C14         -4.5970     1.0120    -0.4510 c          1 PKT       0.600100
     15 O15         -4.8640     2.1930    -0.6190 o          1 PKT      -0.606100
     16 N16         -5.4020     0.0090    -0.8390 ns         1 PKT      -0.504900
     17 C17         -6.6760     0.1970    -1.4930 c3         1 PKT       0.150300
     18 C18         -7.8460    -0.0400    -0.5750 ca         1 PKT      -0.167300
     19 C19         -8.0310     0.7040     0.5860 ca         1 PKT      -0.055000
     20 C20         -9.1270     0.4390     1.3880 ca         1 PKT      -0.166000
     21 C21        -10.0050    -0.5650     1.0030 ca         1 PKT       0.338900
     22 N22         -9.8430    -1.2840    -0.1000 nb         1 PKT      -0.666000
     23 C23         -8.7870    -1.0210    -0.8610 ca         1 PKT       0.340900
     24 C24          3.0830     1.9190    -1.0220 c3         1 PKT      -0.020200
     25 C25          4.4360     2.0510    -0.4060 cc         1 PKT      -0.138400
     26 C26          4.9130     3.1260     0.2910 cd         1 PKT      -0.164100
     27 N27          6.1790     2.8740     0.7420 na         1 PKT      -0.223700
     28 C28          6.5600     1.6280     0.3440 ca         1 PKT      -0.048200
     29 C29          7.7540     0.9370     0.5510 ca         1 PKT      -0.133000
     30 C30          7.8590    -0.3300     0.0110 ca         1 PKT      -0.090000
     31 C31          6.8030    -0.9000    -0.7210 ca         1 PKT      -0.146000
     32 C32          5.6220    -0.2130    -0.9210 ca         1 PKT      -0.057000
     33 C33          5.4830     1.0720    -0.3840 ca         1 PKT      -0.091800
     34 H01          3.5620    -3.1580    -1.5810 hc         1 PKT       0.048478
     35 H01A         4.7770    -3.1580    -0.2940 hc         1 PKT       0.048478
     36 H01B         3.9820    -4.6580    -0.7610 hc         1 PKT       0.048478
     37 H03          1.4500    -4.9590    -0.2000 hc         1 PKT       0.048478
     38 H03A         0.6270    -3.7130     0.7330 hc         1 PKT       0.048478
     39 H03B         1.0700    -3.4160    -0.9560 hc         1 PKT       0.048478
     40 H04          4.1070    -3.6990     2.1010 hc         1 PKT       0.048478
     41 H04A         2.3980    -3.9210     2.5100 hc         1 PKT       0.048478
     42 H04B         3.2480    -5.1410     1.5630 hc         1 PKT       0.048478
     43 HN08         2.6040     0.2070     1.5790 hn         1 PKT       0.332500
     44 H09          1.9870     2.1650     0.7940 h1         1 PKT       0.055700
     45 H10          0.3620     2.4840    -0.9090 h1         1 PKT       0.074200
     46 H10A         0.6300     0.8830    -1.6090 h1         1 PKT       0.074200
     47 H12         -2.2120     2.3400    -0.3800 h1         1 PKT       0.070700
     48 H12A        -2.0200     0.9600    -1.4660 h1         1 PKT       0.070700
     49 H13         -3.1900    -0.5070     0.1860 hc         1 PKT       0.070700
     50 H13A        -3.3790     0.8550     1.2770 hc         1 PKT       0.070700
     51 HN16        -5.1190    -0.9390    -0.6490 hn         1 PKT       0.316500
     52 H17         -6.7100     1.2100    -1.8930 h1         1 PKT       0.066700
     53 H17A        -6.7340    -0.4830    -2.3440 h1         1 PKT       0.066700
     54 H19         -7.3310     1.4850     0.8580 ha         1 PKT       0.131000
     55 H20         -9.3030     0.9980     2.2970 ha         1 PKT       0.125000
     56 H21        -10.8720    -0.7970     1.6120 h4         1 PKT       0.019100
     57 H23         -8.6750    -1.6270    -1.7560 h4         1 PKT       0.015100
     58 H24          3.1160     1.2350    -1.8730 hc         1 PKT       0.060700
     59 H24A         2.7570     2.8850    -1.4160 hc         1 PKT       0.060700
     60 H26          4.4370     4.0710     0.5020 h4         1 PKT       0.209000
     61 HN27         6.7400     3.5200     1.2710 hn         1 PKT       0.349000
     62 H29          8.5690     1.3770     1.1120 ha         1 PKT       0.111000
     63 H30          8.7720    -0.8940     0.1520 ha         1 PKT       0.109000
     64 H31          6.9240    -1.8940    -1.1330 ha         1 PKT       0.109000
     65 H32          4.8180    -0.6650    -1.4880 ha         1 PKT       0.126000
@<TRIPOS>BOND
     1     1     2 1   
     2     1    34 1   
     3     1    35 1   
     4     1    36 1   
     5     2     3 1   
     6     2     4 1   
     7     2     5 1   
     8     3    37 1   
     9     3    38 1   
    10     3    39 1   
    11     4    40 1   
    12     4    41 1   
    13     4    42 1   
    14     5     6 1   
    15     6     7 2   
    16     6     8 1   
    17     8     9 1   
    18     8    43 1   
    19     9    10 1   
    20     9    24 1   
    21     9    44 1   
    22    10    11 1   
    23    10    45 1   
    24    10    46 1   
    25    11    12 1   
    26    12    13 1   
    27    12    47 1   
    28    12    48 1   
    29    13    14 1   
    30    13    49 1   
    31    13    50 1   
    32    14    15 2   
    33    14    16 1   
    34    16    17 1   
    35    16    51 1   
    36    17    18 1   
    37    17    52 1   
    38    17    53 1   
    39    18    19 ar  
    40    18    23 ar  
    41    19    20 ar  
    42    19    54 1   
    43    20    21 ar  
    44    20    55 1   
    45    21    22 ar  
    46    21    56 1   
    47    22    23 ar  
    48    23    57 1   
    49    24    25 1   
    50    24    58 1   
    51    24    59 1   
    52    25    26 2   
    53    25    33 1   
    54    26    27 1   
    55    26    60 1   
    56    27    28 1   
    57    27    61 1   
    58    28    29 ar  
    59    28    33 ar  
    60    29    30 ar  
    61    29    62 1   
    62    30    31 ar  
    63    30    63 1   
    64    31    32 ar  
    65    31    64 1   
    66    32    33 ar  
    67    32    65 1   
@<TRIPOS>SUBSTRUCTURE
     1 PKT         1 TEMP              0 ****  ****    0 ROOT
