@<TRIPOS>MOLECULE
PKT
   65    67     1     0     0
SMALL
No Charge or Current Charge


@<TRIPOS>ATOM
      1 C01          3.7890    -3.4980    -0.6530 c3         1 PKT      -0.108767
      2 C02          2.6460    -3.3250     0.3790 c3         1 PKT       0.226000
      3 C03          1.2630    -3.7700    -0.1640 c3         1 PKT      -0.108767
      4 C04          2.9800    -4.1080     1.6690 c3         1 PKT      -0.108767
      5 O05          2.5820    -1.9450     0.8060 os         1 PKT      -0.476100
      6 C06          2.2920    -0.9210    -0.0530 c          1 PKT       0.658100
      7 O07          2.0450    -1.0070    -1.2450 o          1 PKT      -0.563000
      8 N08          2.3270     0.2410     0.6610 ns         1 PKT      -0.497900
      9 C09          2.0670     1.5910     0.1400 c3         1 PKT       0.159700
     10 C10          0.6440     1.7310    -0.4610 c3         1 PKT       0.047600
     11 S11         -0.6740     1.3150     0.7790 ss         1 PKT      -0.436000
     12 C12         -2.1720     1.4390    -0.2960 c3         1 PKT       0.068600
     13 C13         -3.4360     1.1130     0.5190 c3         1 PKT      -0.148400
     14 C14         -4.6850     1.2040    -0.3560 c          1 PKT       0.600100
     15 O15         -5.1500     2.2730    -0.7230 o          1 PKT      -0.606100
     16 N16         -5.2660    -0.0020    -0.6750 ns         1 PKT      -0.504900
     17 C17         -6.4790    -0.1590    -1.4780 c3         1 PKT       0.150300
     18 C18         -7.7030    -0.3440    -0.5970 ca         1 PKT      -0.167300
     19 C19         -8.3100     0.7570     0.0350 ca         1 PKT      -0.055000
     20 C20         -9.4390     0.5250     0.8360 ca         1 PKT      -0.166000
     21 C21         -9.9210    -0.7870     0.9770 ca         1 PKT       0.338900
     22 N22         -9.3450    -1.8520     0.3720 nb         1 PKT      -0.666000
     23 C23         -8.2550    -1.6250    -0.3990 ca         1 PKT       0.340900
     24 C24          3.1650     2.0640    -0.8480 c3         1 PKT      -0.020200
     25 C25          4.5520     2.0510    -0.2530 cc         1 PKT      -0.138400
     26 C26          5.1130     3.0130     0.5820 cd         1 PKT      -0.164100
     27 N27          6.4210     2.6170     0.9540 na         1 PKT      -0.223700
     28 C28          6.6440     1.4060     0.3280 ca         1 PKT      -0.048200
     29 C29          7.8000     0.6140     0.3810 ca         1 PKT      -0.133000
     30 C30          7.8160    -0.5910    -0.3530 ca         1 PKT      -0.090000
     31 C31          6.6900    -0.9730    -1.1200 ca         1 PKT      -0.146000
     32 C32          5.5400    -0.1560    -1.1540 ca         1 PKT      -0.057000
     33 C33          5.5540     1.0320    -0.4070 ca         1 PKT      -0.091800
     34 H01          3.5470    -3.0370    -1.6160 hc         1 PKT       0.048478
     35 H01A         4.7190    -3.0530    -0.2790 hc         1 PKT       0.048478
     36 H01B         3.9760    -4.5620    -0.8400 hc         1 PKT       0.048478
     37 H03          1.2250    -4.8620    -0.2630 hc         1 PKT       0.048478
     38 H03A         0.4600    -3.4650     0.5180 hc         1 PKT       0.048478
     39 H03B         1.0560    -3.3490    -1.1530 hc         1 PKT       0.048478
     40 H04          3.9340    -3.7720     2.0930 hc         1 PKT       0.048478
     41 H04A         2.2000    -3.9640     2.4260 hc         1 PKT       0.048478
     42 H04B         3.0600    -5.1830     1.4630 hc         1 PKT       0.048478
     43 HN08         2.5520     0.1370     1.6400 hn         1 PKT       0.332500
     44 H09          2.1100     2.2680     1.0030 h1         1 PKT       0.055700
     45 H10          0.4930     2.7650    -0.7980 h1         1 PKT       0.074200
     46 H10A         0.5390     1.0760    -1.3350 h1         1 PKT       0.074200
     47 H12         -2.2420     2.4570    -0.7050 h1         1 PKT       0.070700
     48 H12A        -2.0750     0.7350    -1.1330 h1         1 PKT       0.070700
     49 H13         -3.3340     0.1030     0.9330 hc         1 PKT       0.070700
     50 H13A        -3.5210     1.8430     1.3320 hc         1 PKT       0.070700
     51 HN16        -4.8150    -0.8360    -0.3170 hn         1 PKT       0.316500
     52 H17         -6.6170     0.7180    -2.1250 h1         1 PKT       0.066700
     53 H17A        -6.3560    -1.0320    -2.1330 h1         1 PKT       0.066700
     54 H19         -7.9160     1.7640    -0.0910 ha         1 PKT       0.131000
     55 H20         -9.9390     1.3450     1.3430 ha         1 PKT       0.125000
     56 H21        -10.7960    -0.9930     1.5930 h4         1 PKT       0.019100
     57 H23         -7.8120    -2.5000    -0.8720 h4         1 PKT       0.015100
     58 H24          3.1370     1.4460    -1.7530 hc         1 PKT       0.060700
     59 H24A         2.9290     3.0840    -1.1740 hc         1 PKT       0.060700
     60 H26          4.6750     3.9390     0.9440 h4         1 PKT       0.209000
     61 HN27         7.0650     3.1200     1.5580 hn         1 PKT       0.349000
     62 H29          8.6620     0.9190     0.9690 ha         1 PKT       0.111000
     63 H30          8.6990    -1.2260    -0.3320 ha         1 PKT       0.109000
     64 H31          6.7110    -1.9010    -1.6880 ha         1 PKT       0.109000
     65 H32          4.6750    -0.4400    -1.7460 ha         1 PKT       0.126000
@<TRIPOS>BOND
     1     1     2 1   
     2     1    34 1   
     3     1    35 1   
     4     1    36 1   
     5     2     3 1   
     6     2     4 1   
     7     2     5 1   
     8     3    37 1   
     9     3    38 1   
    10     3    39 1   
    11     4    40 1   
    12     4    41 1   
    13     4    42 1   
    14     5     6 1   
    15     6     7 2   
    16     6     8 1   
    17     8     9 1   
    18     8    43 1   
    19     9    10 1   
    20     9    24 1   
    21     9    44 1   
    22    10    11 1   
    23    10    45 1   
    24    10    46 1   
    25    11    12 1   
    26    12    13 1   
    27    12    47 1   
    28    12    48 1   
    29    13    14 1   
    30    13    49 1   
    31    13    50 1   
    32    14    15 2   
    33    14    16 1   
    34    16    17 1   
    35    16    51 1   
    36    17    18 1   
    37    17    52 1   
    38    17    53 1   
    39    18    19 ar  
    40    18    23 ar  
    41    19    20 ar  
    42    19    54 1   
    43    20    21 ar  
    44    20    55 1   
    45    21    22 ar  
    46    21    56 1   
    47    22    23 ar  
    48    23    57 1   
    49    24    25 1   
    50    24    58 1   
    51    24    59 1   
    52    25    26 2   
    53    25    33 1   
    54    26    27 1   
    55    26    60 1   
    56    27    28 1   
    57    27    61 1   
    58    28    29 ar  
    59    28    33 ar  
    60    29    30 ar  
    61    29    62 1   
    62    30    31 ar  
    63    30    63 1   
    64    31    32 ar  
    65    31    64 1   
    66    32    33 ar  
    67    32    65 1   
@<TRIPOS>SUBSTRUCTURE
     1 PKT         1 TEMP              0 ****  ****    0 ROOT
