@<TRIPOS>MOLECULE
PKU
   17    17     1     0     0
SMALL
abcg2


@<TRIPOS>ATOM
      1 CAA        -20.4220   -24.9250   -12.3770 c3         1 PKU       0.098300
      2 CAD        -18.4360   -29.9950   -14.9040 cc         1 PKU      -0.138000
      3 CAE        -17.6750   -27.9800   -14.1860 cd         1 PKU      -0.109000
      4 CAH        -20.0260   -27.1140   -13.3990 c          1 PKU       0.633700
      5 CAI        -17.3080   -29.2090   -14.7720 cd         1 PKU      -0.102900
      6 CAJ        -19.0440   -28.0480   -13.9710 cc         1 PKU      -0.245600
      7 NAF        -19.5570   -25.9310   -12.9650 ns         1 PKU      -0.494900
      8 NAG        -19.4750   -29.2710   -14.4140 na         1 PKU      -0.066000
      9 OAB        -21.2240   -27.4220   -13.3340 o          1 PKU      -0.630100
     10 H1         -19.8260   -24.0390   -12.1720 h1         1 PKU       0.044033
     11 H2         -21.2290   -24.6620   -13.0620 h1         1 PKU       0.044033
     12 H3         -20.8640   -25.2790   -11.4430 h1         1 PKU       0.044033
     13 H4         -18.5620   -30.9870   -15.3010 h4         1 PKU       0.165000
     14 H5         -17.0190   -27.1580   -13.9570 ha         1 PKU       0.141000
     15 H6         -18.5700   -25.7420   -13.0180 hn         1 PKU       0.321500
     16 H7         -20.4380   -29.5680   -14.3670 hn         1 PKU       0.373000
     17 BR         -15.5610   -29.7130   -15.2960 br         1 PKU      -0.077100
@<TRIPOS>BOND
     1     1     7 1   
     2     1    10 1   
     3     1    11 1   
     4     1    12 1   
     5     2     5 2   
     6     2     8 1   
     7     2    13 1   
     8     3     5 1   
     9     3     6 2   
    10     3    14 1   
    11     4     6 1   
    12     4     7 1   
    13     4     9 2   
    14     5    17 1   
    15     6     8 1   
    16     7    15 1   
    17     8    16 1   
@<TRIPOS>SUBSTRUCTURE
     1 PKU         1 TEMP              0 ****  ****    0 ROOT
