@<TRIPOS>MOLECULE
PKU
   17    17     1     0     0
SMALL
No Charge or Current Charge


@<TRIPOS>ATOM
      1 CAA        -20.2960   -24.8550   -12.3740 c3         1 PKU       0.098300
      2 CAD        -18.3500   -30.0390   -14.9390 cc         1 PKU      -0.138000
      3 CAE        -17.8630   -27.9770   -14.1490 cd         1 PKU      -0.109000
      4 CAH        -20.1530   -27.1520   -13.3790 c          1 PKU       0.633700
      5 CAI        -17.3370   -29.1420   -14.7410 cd         1 PKU      -0.102900
      6 CAJ        -19.2180   -28.1380   -13.9700 cc         1 PKU      -0.245600
      7 NAF        -19.5710   -25.9720   -12.9820 ns         1 PKU      -0.494900
      8 NAG        -19.5080   -29.4170   -14.4630 na         1 PKU      -0.066000
      9 OAB        -21.3500   -27.3640   -13.2510 o          1 PKU      -0.630100
     10 H1         -19.5960   -24.0390   -12.1530 h1         1 PKU       0.044033
     11 H2         -21.0660   -24.4930   -13.0670 h1         1 PKU       0.044033
     12 H3         -20.7710   -25.1870   -11.4410 h1         1 PKU       0.044033
     13 H4         -18.3470   -31.0360   -15.3640 h4         1 PKU       0.165000
     14 H5         -17.2750   -27.1040   -13.8830 ha         1 PKU       0.141000
     15 H6         -18.5730   -25.8850   -13.1270 hn         1 PKU       0.321500
     16 H7         -20.4360   -29.8350   -14.4710 hn         1 PKU       0.373000
     17 Br         -15.5260   -29.4080   -15.1850 br         1 PKU      -0.077100
@<TRIPOS>BOND
     1     1     7 1   
     2     1    10 1   
     3     1    11 1   
     4     1    12 1   
     5     2     5 2   
     6     2     8 1   
     7     2    13 1   
     8     3     5 1   
     9     3     6 2   
    10     3    14 1   
    11     4     6 1   
    12     4     7 1   
    13     4     9 2   
    14     5    17 1   
    15     6     8 1   
    16     7    15 1   
    17     8    16 1   
@<TRIPOS>SUBSTRUCTURE
     1 PKU         1 TEMP              0 ****  ****    0 ROOT
