@<TRIPOS>MOLECULE
PKW
   39    42     1     0     0
SMALL
abcg2


@<TRIPOS>ATOM
      1 N1           3.8410     1.7580    19.0390 nc         1 PKW      -0.552100
      2 N3           7.5900    -0.1880    21.2400 ns         1 PKW      -0.171000
      3 C4           7.4860    -0.0580    18.8040 ca         1 PKW       0.353900
      4 C5           6.9180     0.1870    20.0450 ca         1 PKW      -0.107000
      5 C6           8.3730     0.6690    21.9370 c          1 PKW       0.597100
      6 C7           9.0490     0.0720    23.1670 c6         1 PKW      -0.082400
      7 C8           8.7300     0.9160    24.4050 c6         1 PKW      -0.106400
      8 C10         11.4370     0.3480    23.9770 ca         1 PKW       0.149100
      9 C13         12.4450    -0.4980    21.5430 ca         1 PKW       0.094000
     10 C15         10.5500    -0.0110    22.9550 ca         1 PKW      -0.144300
     11 CL          13.0750    -1.0450    19.9990 cl         1 PKW      -0.207000
     12 C12         13.3280    -0.1210    22.5480 ca         1 PKW      -0.062000
     13 C11         12.8160     0.2980    23.7640 ca         1 PKW      -0.132000
     14 C14         11.0770    -0.4440    21.7370 ca         1 PKW      -0.061000
     15 O1          11.0260     0.7710    25.2040 os         1 PKW      -0.343100
     16 C9           9.6490     0.5180    25.5390 c6         1 PKW       0.161600
     17 O            8.5310     1.8380    21.6060 o          1 PKW      -0.564100
     18 N2           6.9180     0.2550    17.6240 nb         1 PKW      -0.675000
     19 C3           5.7260     0.8490    17.6190 ca         1 PKW       0.408900
     20 C16          5.6730     0.8140    20.0350 ca         1 PKW      -0.042200
     21 N            4.7960     1.2310    21.0050 na         1 PKW      -0.183600
     22 C            4.9460     1.1330    22.4510 c3         1 PKW       0.072900
     23 C2           5.0650     1.1500    18.8060 ca         1 PKW       0.012400
     24 C1           3.7290     1.7830    20.3430 cd         1 PKW       0.421700
     25 H1           7.4890    -1.1370    21.5690 hn         1 PKW       0.158000
     26 H2           8.4570    -0.5390    18.7660 h4         1 PKW       0.025100
     27 H3           8.6670    -0.9400    23.3260 hc         1 PKW       0.057700
     28 H4           8.8740     1.9730    24.1760 hc         1 PKW       0.069700
     29 H5           7.6910     0.7720    24.7040 hc         1 PKW       0.069700
     30 H6          14.3960    -0.1620    22.3870 ha         1 PKW       0.134000
     31 H7          13.4790     0.5890    24.5690 ha         1 PKW       0.135000
     32 H8          10.4100    -0.7330    20.9350 ha         1 PKW       0.127000
     33 H9           9.4600     1.1040    26.4360 h1         1 PKW       0.059200
     34 H10          9.5410    -0.5440    25.7790 h1         1 PKW       0.059200
     35 H11          5.2880     1.0930    16.6570 h4         1 PKW       0.039100
     36 H12          4.0480     1.5390    22.9110 h1         1 PKW       0.054367
     37 H13          5.0660     0.0930    22.7480 h1         1 PKW       0.054367
     38 H14          5.8090     1.7080    22.7800 h1         1 PKW       0.054367
     39 H15          2.8940     2.1900    20.8950 h5         1 PKW       0.065800
@<TRIPOS>BOND
     1     1    23 1   
     2     1    24 2   
     3     2     4 1   
     4     2     5 1   
     5     2    25 1   
     6     3     4 ar  
     7     3    18 ar  
     8     3    26 1   
     9     4    20 ar  
    10     5     6 1   
    11     5    17 2   
    12     6     7 1   
    13     6    10 1   
    14     6    27 1   
    15     7    16 1   
    16     7    28 1   
    17     7    29 1   
    18     8    10 ar  
    19     8    13 ar  
    20     8    15 1   
    21     9    11 1   
    22     9    12 ar  
    23     9    14 ar  
    24    10    14 ar  
    25    12    13 ar  
    26    12    30 1   
    27    13    31 1   
    28    14    32 1   
    29    15    16 1   
    30    16    33 1   
    31    16    34 1   
    32    18    19 ar  
    33    19    23 ar  
    34    19    35 1   
    35    20    21 1   
    36    20    23 ar  
    37    21    22 1   
    38    21    24 1   
    39    22    36 1   
    40    22    37 1   
    41    22    38 1   
    42    24    39 1   
@<TRIPOS>SUBSTRUCTURE
     1 PKW         1 TEMP              0 ****  ****    0 ROOT
