@<TRIPOS>MOLECULE
PKW
   39    42     1     0     0
SMALL
No Charge or Current Charge


@<TRIPOS>ATOM
      1 N1           3.3000     0.8620    19.0880 nc         1 PKW      -0.552100
      2 N3           7.5570     0.7090    21.1970 ns         1 PKW      -0.171000
      3 C4           7.3930     1.3130    18.7740 ca         1 PKW       0.353900
      4 C5           6.7980     0.9540    20.0150 ca         1 PKW      -0.107000
      5 C6           8.8800     0.9850    21.5210 c          1 PKW       0.597100
      6 C7           9.3210     0.4690    22.9160 c6         1 PKW      -0.082400
      7 C8           9.0220     1.5330    24.0060 c6         1 PKW      -0.106400
      8 C10         11.6190     0.3040    24.0540 ca         1 PKW       0.149100
      9 C13         12.6260    -1.2860    21.9680 ca         1 PKW       0.094000
     10 C15         10.7790    -0.0320    22.9640 ca         1 PKW      -0.144300
     11 Cl          13.2530    -2.2920    20.6690 cl         1 PKW      -0.207000
     12 C12         13.4620    -0.9200    23.0350 ca         1 PKW      -0.062000
     13 C11         12.9560    -0.1250    24.0780 ca         1 PKW      -0.132000
     14 C14         11.2910    -0.8490    21.9320 ca         1 PKW      -0.061000
     15 O1          11.1540     1.0560    25.1130 os         1 PKW      -0.343100
     16 C9           9.7310     1.1650    25.3210 c6         1 PKW       0.161600
     17 O            9.6580     1.5510    20.7620 o          1 PKW      -0.564100
     18 N2           6.6860     1.5330    17.6330 nb         1 PKW      -0.675000
     19 C3           5.3340     1.3980    17.6870 ca         1 PKW       0.408900
     20 C16          5.3920     0.8230    20.0180 ca         1 PKW      -0.042200
     21 N            4.5020     0.4970    21.0180 na         1 PKW      -0.183600
     22 C            4.8130     0.2460    22.4350 c3         1 PKW       0.072900
     23 C2           4.6660     1.0400    18.8780 ca         1 PKW       0.012400
     24 C1           3.2430     0.5360    20.3960 cd         1 PKW       0.421700
     25 H1           7.0420     0.2400    21.9290 hn         1 PKW       0.158000
     26 H2           8.4700     1.4130    18.6650 h4         1 PKW       0.025100
     27 H3           8.6530    -0.3670    23.1660 hc         1 PKW       0.057700
     28 H4           9.3800     2.5190    23.6770 hc         1 PKW       0.069700
     29 H5           7.9400     1.6290    24.1710 hc         1 PKW       0.069700
     30 H6          14.4950    -1.2570    23.0560 ha         1 PKW       0.134000
     31 H7          13.5960     0.1490    24.9120 ha         1 PKW       0.135000
     32 H8          10.6610    -1.1420    21.0960 ha         1 PKW       0.127000
     33 H9           9.5390     1.9270    26.0890 h1         1 PKW       0.059200
     34 H10          9.3520     0.2010    25.6920 h1         1 PKW       0.059200
     35 H11          4.7830     1.5780    16.7650 h4         1 PKW       0.039100
     36 H12          3.8830     0.0920    22.9960 h1         1 PKW       0.054367
     37 H13          5.4360    -0.6530    22.5250 h1         1 PKW       0.054367
     38 H14          5.3430     1.1090    22.8580 h1         1 PKW       0.054367
     39 H15          2.3380     0.3250    20.9530 h5         1 PKW       0.065800
@<TRIPOS>BOND
     1     1    23 1   
     2     1    24 2   
     3     2     4 1   
     4     2     5 1   
     5     2    25 1   
     6     3     4 ar  
     7     3    18 ar  
     8     3    26 1   
     9     4    20 ar  
    10     5     6 1   
    11     5    17 2   
    12     6     7 1   
    13     6    10 1   
    14     6    27 1   
    15     7    16 1   
    16     7    28 1   
    17     7    29 1   
    18     8    10 ar  
    19     8    13 ar  
    20     8    15 1   
    21     9    11 1   
    22     9    12 ar  
    23     9    14 ar  
    24    10    14 ar  
    25    12    13 ar  
    26    12    30 1   
    27    13    31 1   
    28    14    32 1   
    29    15    16 1   
    30    16    33 1   
    31    16    34 1   
    32    18    19 ar  
    33    19    23 ar  
    34    19    35 1   
    35    20    21 1   
    36    20    23 ar  
    37    21    22 1   
    38    21    24 1   
    39    22    36 1   
    40    22    37 1   
    41    22    38 1   
    42    24    39 1   
@<TRIPOS>SUBSTRUCTURE
     1 PKW         1 TEMP              0 ****  ****    0 ROOT
