@<TRIPOS>MOLECULE
PL0
   19    19     1     0     0
SMALL
No Charge or Current Charge


@<TRIPOS>ATOM
      1 C2           1.9060    -0.8590    -0.0550 ca         1 PL0      -0.137000
      2 C3           0.8760    -0.3170     0.7330 ca         1 PL0      -0.079500
      3 C4           0.8750    -0.5230     2.1240 ca         1 PL0      -0.158500
      4 C5           1.9020    -1.2640     2.7310 ca         1 PL0       0.302000
      5 C6           2.9260    -1.8120     1.9380 ca         1 PL0      -0.158500
      6 C1           2.9310    -1.6090     0.5460 ca         1 PL0      -0.079500
      7 C7           2.8090    -1.2900     5.0140 c2         1 PL0       0.808100
      8 N1           1.8840    -1.4620     4.1080 nu         1 PL0      -0.980200
      9 N2           2.1310    -1.2460     6.1220 nv         1 PL0      -1.031200
     10 N3           3.8350    -0.6420     4.7770 n2         1 PL0      -0.887100
     11 H2           1.9070    -0.7020    -1.1320 ha         1 PL0       0.116000
     12 H3           0.0810     0.2610     0.2670 ha         1 PL0       0.113500
     13 H4           0.0770    -0.1000     2.7290 ha         1 PL0       0.118500
     14 H6           3.7130    -2.4040     2.3960 ha         1 PL0       0.118500
     15 H1           3.7240    -2.0350    -0.0640 ha         1 PL0       0.113500
     16 HN1          0.9980    -1.2540     4.5460 hn         1 PL0       0.489000
     17 HN21         1.8320    -2.1740     6.3900 hn         1 PL0       0.466500
     18 HN22         2.6800    -0.7980     6.8420 hn         1 PL0       0.466500
     19 HN3          3.8900    -0.6130     3.7550 hn         1 PL0       0.398400
@<TRIPOS>BOND
     1     1     2 ar  
     2     1     6 ar  
     3     1    11 1   
     4     2     3 ar  
     5     2    12 1   
     6     3     4 ar  
     7     3    13 1   
     8     4     5 ar  
     9     4     8 1   
    10     5     6 ar  
    11     5    14 1   
    12     6    15 1   
    13     7     8 1   
    14     7     9 1   
    15     7    10 2   
    16     8    16 1   
    17     9    17 1   
    18     9    18 1   
    19    10    19 1   
@<TRIPOS>SUBSTRUCTURE
     1 PL0         1 TEMP              0 ****  ****    0 ROOT
