@<TRIPOS>MOLECULE
PL0
   19    19     1     0     0
SMALL
bcc


@<TRIPOS>ATOM
      1 C2           1.9080    -0.9400    -0.0830 ca         1 PL0      -0.155000
      2 C3           0.8370    -0.4100     0.6250 ca         1 PL0      -0.097500
      3 C4           0.7960    -0.4940     2.0080 ca         1 PL0      -0.176500
      4 C5           1.8210    -1.1280     2.7110 ca         1 PL0       0.163600
      5 C6           2.8870    -1.6810     1.9960 ca         1 PL0      -0.176500
      6 C1           2.9270    -1.5740     0.6140 ca         1 PL0      -0.097500
      7 C7           2.7570    -1.1090     5.0050 c2         1 PL0       0.808100
      8 N1           1.7200    -1.2420     4.0960 nu         1 PL0      -0.786600
      9 N2           2.3450    -1.3740     6.2870 nv         1 PL0      -0.920800
     10 N3           3.9600    -0.7470     4.7720 n2         1 PL0      -0.887100
     11 H2           1.9440    -0.8650    -1.1610 ha         1 PL0       0.134000
     12 H3           0.0280     0.0830     0.1010 ha         1 PL0       0.131500
     13 H4          -0.0380    -0.0630     2.5500 ha         1 PL0       0.136500
     14 H6           3.6740    -2.2160     2.5100 ha         1 PL0       0.136500
     15 H1           3.7620    -2.0070     0.0780 ha         1 PL0       0.131500
     16 HN1          0.7950    -1.1060     4.4760 hn         1 PL0       0.433800
     17 HN21         1.6750    -2.1180     6.4070 hn         1 PL0       0.411300
     18 HN22         3.0950    -1.4110     6.9590 hn         1 PL0       0.411300
     19 HN3          4.0860    -0.4400     3.8160 hn         1 PL0       0.398400
@<TRIPOS>BOND
     1     1     2 ar  
     2     1     6 ar  
     3     1    11 1   
     4     2     3 ar  
     5     2    12 1   
     6     3     4 ar  
     7     3    13 1   
     8     4     5 ar  
     9     4     8 1   
    10     5     6 ar  
    11     5    14 1   
    12     6    15 1   
    13     7     8 1   
    14     7     9 1   
    15     7    10 2   
    16     8    16 1   
    17     9    17 1   
    18     9    18 1   
    19    10    19 1   
@<TRIPOS>SUBSTRUCTURE
     1 PL0         1 TEMP              0 ****  ****    0 ROOT
