@<TRIPOS>MOLECULE
PL3
   51    50     1     0     0
SMALL
No Charge or Current Charge


@<TRIPOS>ATOM
      1 C1          11.7070     8.5220     9.2110 c3         1 PL3       0.155600
      2 O1          12.3090     9.8180     9.3060 oh         1 PL3      -0.655000
      3 C2          11.0280     8.3650     7.8360 c3         1 PL3      -0.116400
      4 C3          10.3410     6.9920     7.6590 c3         1 PL3      -0.072400
      5 C4           9.6580     6.8310     6.2830 c3         1 PL3      -0.074400
      6 C5           8.9720     5.4590     6.1050 c3         1 PL3      -0.074400
      7 C6           8.2890     5.2980     4.7300 c3         1 PL3      -0.074400
      8 C7           7.6030     3.9260     4.5530 c3         1 PL3      -0.074400
      9 C8           6.9200     3.7640     3.1770 c3         1 PL3      -0.074400
     10 C9           6.2330     2.3920     3.0000 c3         1 PL3      -0.074400
     11 CA           5.5510     2.2310     1.6240 c3         1 PL3      -0.074400
     12 CB           4.8640     0.8590     1.4470 c3         1 PL3      -0.074400
     13 CC           4.1810     0.6980     0.0710 c3         1 PL3      -0.074400
     14 CD           3.4940    -0.6740    -0.1050 c3         1 PL3      -0.074400
     15 CE           2.8110    -0.8350    -1.4810 c3         1 PL3      -0.075400
     16 CF           2.1240    -2.2070    -1.6580 c3         1 PL3      -0.075400
     17 CG           1.4430    -2.3680    -3.0310 c3         1 PL3      -0.088100
     18 H1C1        12.4650     7.7360     9.3360 h1         1 PL3       0.040200
     19 H1C2        10.9560     8.3920    10.0030 h1         1 PL3       0.040200
     20 H2C1        10.2810     9.1590     7.7110 hc         1 PL3       0.044700
     21 H2C2        11.7760     8.4970     7.0440 hc         1 PL3       0.044700
     22 H3C1         9.5930     6.8590     8.4500 hc         1 PL3       0.038200
     23 H3C2        11.0870     6.1970     7.7860 hc         1 PL3       0.038200
     24 H4C1        10.4070     6.9640     5.4910 hc         1 PL3       0.038700
     25 H4C2         8.9130     7.6260     6.1550 hc         1 PL3       0.038700
     26 H5C1         8.2240     5.3260     6.8970 hc         1 PL3       0.037200
     27 H5C2         9.7180     4.6640     6.2330 hc         1 PL3       0.037200
     28 H6C1         9.0380     5.4310     3.9380 hc         1 PL3       0.037700
     29 H6C2         7.5440     6.0930     4.6020 hc         1 PL3       0.037700
     30 H7C1         8.3490     3.1310     4.6800 hc         1 PL3       0.037700
     31 H7C2         6.8540     3.7930     5.3440 hc         1 PL3       0.037700
     32 H8C1         7.6680     3.8970     2.3860 hc         1 PL3       0.037200
     33 H8C2         6.1740     4.5590     3.0500 hc         1 PL3       0.037200
     34 H9C1         6.9790     1.5980     3.1270 hc         1 PL3       0.037200
     35 H9C2         5.4850     2.2600     3.7910 hc         1 PL3       0.037200
     36 HAC1         6.2990     2.3640     0.8330 hc         1 PL3       0.037200
     37 HAC2         4.8050     3.0260     1.4970 hc         1 PL3       0.037200
     38 HBC1         4.1150     0.7270     2.2390 hc         1 PL3       0.036700
     39 HBC2         5.6090     0.0640     1.5750 hc         1 PL3       0.036700
     40 HCC1         3.4360     1.4930    -0.0560 hc         1 PL3       0.037200
     41 HCC2         4.9300     0.8310    -0.7200 hc         1 PL3       0.037200
     42 HDC1         4.2400    -1.4690     0.0220 hc         1 PL3       0.036700
     43 HDC2         2.7460    -0.8070     0.6860 hc         1 PL3       0.036700
     44 HEC1         3.5600    -0.7030    -2.2730 hc         1 PL3       0.036700
     45 HEC2         2.0660    -0.0400    -1.6090 hc         1 PL3       0.036700
     46 HFC1         2.8670    -3.0050    -1.5330 hc         1 PL3       0.036700
     47 HFC2         1.3740    -2.3420    -0.8700 hc         1 PL3       0.036700
     48 HGC1         0.9710    -3.3550    -3.1090 hc         1 PL3       0.031367
     49 HGC2         0.6690    -1.6050    -3.1720 hc         1 PL3       0.031367
     50 HGC3         2.1760    -2.2730    -3.8410 hc         1 PL3       0.031367
     51 HO          12.9830     9.8730     8.5930 ho         1 PL3       0.437000
@<TRIPOS>BOND
     1     1     2 1   
     2     1     3 1   
     3     1    18 1   
     4     1    19 1   
     5     2    51 1   
     6     3     4 1   
     7     3    20 1   
     8     3    21 1   
     9     4     5 1   
    10     4    22 1   
    11     4    23 1   
    12     5     6 1   
    13     5    24 1   
    14     5    25 1   
    15     6     7 1   
    16     6    26 1   
    17     6    27 1   
    18     7     8 1   
    19     7    28 1   
    20     7    29 1   
    21     8     9 1   
    22     8    30 1   
    23     8    31 1   
    24     9    10 1   
    25     9    32 1   
    26     9    33 1   
    27    10    11 1   
    28    10    34 1   
    29    10    35 1   
    30    11    12 1   
    31    11    36 1   
    32    11    37 1   
    33    12    13 1   
    34    12    38 1   
    35    12    39 1   
    36    13    14 1   
    37    13    40 1   
    38    13    41 1   
    39    14    15 1   
    40    14    42 1   
    41    14    43 1   
    42    15    16 1   
    43    15    44 1   
    44    15    45 1   
    45    16    17 1   
    46    16    46 1   
    47    16    47 1   
    48    17    48 1   
    49    17    49 1   
    50    17    50 1   
@<TRIPOS>SUBSTRUCTURE
     1 PL3         1 TEMP              0 ****  ****    0 ROOT
