@<TRIPOS>MOLECULE
PL3
   51    50     1     0     0
SMALL
abcg2


@<TRIPOS>ATOM
      1 C1          11.6310     8.4420     9.1400 c3         1 PL3       0.155600
      2 O1          12.2480     9.6950     9.3500 oh         1 PL3      -0.655000
      3 C2          10.9770     8.3090     7.7740 c3         1 PL3      -0.116400
      4 C3          10.3000     6.9560     7.5900 c3         1 PL3      -0.072400
      5 C4           9.6300     6.7980     6.2310 c3         1 PL3      -0.074400
      6 C5           8.9540     5.4450     6.0500 c3         1 PL3      -0.074400
      7 C6           8.2780     5.2840     4.6930 c3         1 PL3      -0.074400
      8 C7           7.6000     3.9310     4.5150 c3         1 PL3      -0.074400
      9 C8           6.9210     3.7690     3.1600 c3         1 PL3      -0.074400
     10 C9           6.2440     2.4150     2.9850 c3         1 PL3      -0.074400
     11 CA           5.5620     2.2500     1.6320 c3         1 PL3      -0.074400
     12 CB           4.8880     0.8940     1.4580 c3         1 PL3      -0.074400
     13 CC           4.2050     0.7270     0.1060 c3         1 PL3      -0.074400
     14 CD           3.5330    -0.6300    -0.0640 c3         1 PL3      -0.074400
     15 CE           2.8490    -0.8010    -1.4150 c3         1 PL3      -0.075400
     16 CF           2.1780    -2.1590    -1.5840 c3         1 PL3      -0.075400
     17 CG           1.4940    -2.3220    -2.9340 c3         1 PL3      -0.088100
     18 H1C1        12.3430     7.6190     9.2850 h1         1 PL3       0.040200
     19 H1C2        10.8720     8.3400     9.9200 h1         1 PL3       0.040200
     20 H2C1        10.2430     9.1100     7.6440 hc         1 PL3       0.044700
     21 H2C2        11.7350     8.4450     6.9940 hc         1 PL3       0.044700
     22 H3C1         9.5530     6.8130     8.3790 hc         1 PL3       0.038200
     23 H3C2        11.0390     6.1580     7.7240 hc         1 PL3       0.038200
     24 H4C1        10.3760     6.9400     5.4410 hc         1 PL3       0.038700
     25 H4C2         8.8890     7.5940     6.0970 hc         1 PL3       0.038700
     26 H5C1         8.2110     5.3020     6.8420 hc         1 PL3       0.037200
     27 H5C2         9.6960     4.6490     6.1810 hc         1 PL3       0.037200
     28 H6C1         9.0210     5.4250     3.9000 hc         1 PL3       0.037700
     29 H6C2         7.5370     6.0800     4.5610 hc         1 PL3       0.037700
     30 H7C1         8.3410     3.1350     4.6470 hc         1 PL3       0.037700
     31 H7C2         6.8580     3.7910     5.3100 hc         1 PL3       0.037700
     32 H8C1         7.6620     3.9090     2.3660 hc         1 PL3       0.037200
     33 H8C2         6.1790     4.5640     3.0280 hc         1 PL3       0.037200
     34 H9C1         6.9870     1.6200     3.1150 hc         1 PL3       0.037200
     35 H9C2         5.5050     2.2740     3.7810 hc         1 PL3       0.037200
     36 HAC1         6.3010     2.3920     0.8350 hc         1 PL3       0.037200
     37 HAC2         4.8180     3.0430     1.5010 hc         1 PL3       0.037200
     38 HBC1         4.1510     0.7520     2.2560 hc         1 PL3       0.036700
     39 HBC2         5.6330     0.1020     1.5890 hc         1 PL3       0.036700
     40 HCC1         3.4600     1.5190    -0.0240 hc         1 PL3       0.037200
     41 HCC2         4.9430     0.8690    -0.6920 hc         1 PL3       0.037200
     42 HDC1         4.2790    -1.4220     0.0670 hc         1 PL3       0.036700
     43 HDC2         2.7960    -0.7720     0.7340 hc         1 PL3       0.036700
     44 HEC1         3.5860    -0.6600    -2.2150 hc         1 PL3       0.036700
     45 HEC2         2.1020    -0.0110    -1.5480 hc         1 PL3       0.036700
     46 HFC1         2.9250    -2.9490    -1.4560 hc         1 PL3       0.036700
     47 HFC2         1.4450    -2.3020    -0.7840 hc         1 PL3       0.036700
     48 HGC1         1.0200    -3.3000    -3.0260 hc         1 PL3       0.031367
     49 HGC2         0.7200    -1.5660    -3.0800 hc         1 PL3       0.031367
     50 HGC3         2.2080    -2.2230    -3.7540 hc         1 PL3       0.031367
     51 HO          12.9580     9.7870     8.7070 ho         1 PL3       0.437000
@<TRIPOS>BOND
     1     1     2 1   
     2     1     3 1   
     3     1    18 1   
     4     1    19 1   
     5     2    51 1   
     6     3     4 1   
     7     3    20 1   
     8     3    21 1   
     9     4     5 1   
    10     4    22 1   
    11     4    23 1   
    12     5     6 1   
    13     5    24 1   
    14     5    25 1   
    15     6     7 1   
    16     6    26 1   
    17     6    27 1   
    18     7     8 1   
    19     7    28 1   
    20     7    29 1   
    21     8     9 1   
    22     8    30 1   
    23     8    31 1   
    24     9    10 1   
    25     9    32 1   
    26     9    33 1   
    27    10    11 1   
    28    10    34 1   
    29    10    35 1   
    30    11    12 1   
    31    11    36 1   
    32    11    37 1   
    33    12    13 1   
    34    12    38 1   
    35    12    39 1   
    36    13    14 1   
    37    13    40 1   
    38    13    41 1   
    39    14    15 1   
    40    14    42 1   
    41    14    43 1   
    42    15    16 1   
    43    15    44 1   
    44    15    45 1   
    45    16    17 1   
    46    16    46 1   
    47    16    47 1   
    48    17    48 1   
    49    17    49 1   
    50    17    50 1   
@<TRIPOS>SUBSTRUCTURE
     1 PL3         1 TEMP              0 ****  ****    0 ROOT
