@<TRIPOS>MOLECULE
PL7
   42    42     1     0     0
SMALL
No Charge or Current Charge


@<TRIPOS>ATOM
      1 O16          4.3180     2.3680    -3.4300 o          1 PL7      -0.780500
      2 C9           3.7560     3.4520    -3.4580 c          1 PL7       0.725000
      3 O17          4.2680     4.4600    -3.9230 o          1 PL7      -0.780500
      4 C10          2.3580     3.5710    -2.8240 c3         1 PL7      -0.186400
      5 C11          2.4690     3.9240    -1.3150 c3         1 PL7      -0.104700
      6 C8           1.1120     4.1450    -0.6210 ce         1 PL7       0.296300
      7 C12          0.5970     5.5960    -0.4650 c          1 PL7       0.631700
      8 O19         -0.4590     5.8080     0.1270 o          1 PL7      -0.737500
      9 O18          1.2440     6.5260    -0.9370 o          1 PL7      -0.737500
     10 N1           0.4120     3.1720    -0.0830 n2         1 PL7      -0.369700
     11 O13          0.7930     1.8610    -0.4470 os         1 PL7      -0.314000
     12 C5          -0.0030     0.8900     0.2620 c3         1 PL7       0.184600
     13 C3           0.4150    -0.5280    -0.1910 c3         1 PL7      -0.054300
     14 C4          -0.0250    -0.7790    -1.6620 c          1 PL7       0.737000
     15 O14          0.8370    -0.8890    -2.5260 o          1 PL7      -0.720500
     16 N2           1.8680    -0.7950    -0.0030 ns         1 PL7      -0.432900
     17 C6           2.5080    -0.9340     1.2110 c          1 PL7       0.591100
     18 O15          1.8960    -0.9040     2.2740 o          1 PL7      -0.651100
     19 C7           4.0390    -1.1400     1.1030 c3         1 PL7       0.048600
     20 O34          4.6670    -1.3000     2.3970 os         1 PL7      -0.306100
     21 C35          6.0260    -1.4970     2.5370 ca         1 PL7       0.170100
     22 C40          6.9050    -1.5540     1.4320 ca         1 PL7      -0.177000
     23 C39          8.2810    -1.7570     1.6390 ca         1 PL7      -0.083000
     24 C38          8.7830    -1.9030     2.9430 ca         1 PL7      -0.183000
     25 C37          7.9130    -1.8460     4.0430 ca         1 PL7      -0.083000
     26 C36          6.5370    -1.6430     3.8370 ca         1 PL7      -0.177000
     27 OXT         -1.2110    -0.9910    -1.8750 o          1 PL7      -0.720500
     28 H101         1.8010     4.3960    -3.2840 hc         1 PL7       0.033700
     29 H102         1.8360     2.6080    -2.8730 hc         1 PL7       0.033700
     30 H111         3.0930     4.8200    -1.2200 hc         1 PL7       0.042200
     31 H112         3.0340     3.1370    -0.8010 hc         1 PL7       0.042200
     32 H5C1         0.1500     0.9860     1.3450 h1         1 PL7       0.019700
     33 H5C2        -1.0720     1.0370     0.0580 h1         1 PL7       0.019700
     34 H3          -0.1330    -1.2510     0.4260 h1         1 PL7       0.031700
     35 H2           2.4440    -0.8370    -0.8370 hn         1 PL7       0.347500
     36 H7C1         4.2090    -2.0260     0.4790 h1         1 PL7       0.052700
     37 H7C2         4.4510    -0.2680     0.5800 h1         1 PL7       0.052700
     38 H40          6.5410    -1.4450     0.4150 ha         1 PL7       0.129500
     39 H36          5.8630    -1.5990     4.6880 ha         1 PL7       0.129500
     40 H39          8.9580    -1.8020     0.7880 ha         1 PL7       0.094500
     41 H38          9.8480    -2.0600     3.1000 ha         1 PL7       0.091000
     42 H37          8.3020    -1.9590     5.0530 ha         1 PL7       0.094500
@<TRIPOS>BOND
     1     1     2 1   
     2     2     3 1   
     3     2     4 1   
     4     4     5 1   
     5     4    28 1   
     6     4    29 1   
     7     5     6 1   
     8     5    30 1   
     9     5    31 1   
    10     6     7 1   
    11     6    10 2   
    12     7     8 1   
    13     7     9 1   
    14    10    11 1   
    15    11    12 1   
    16    12    13 1   
    17    12    32 1   
    18    12    33 1   
    19    13    14 1   
    20    13    16 1   
    21    13    34 1   
    22    14    15 1   
    23    14    27 1   
    24    16    17 1   
    25    16    35 1   
    26    17    18 2   
    27    17    19 1   
    28    19    20 1   
    29    19    36 1   
    30    19    37 1   
    31    20    21 1   
    32    21    22 ar  
    33    21    26 ar  
    34    22    23 ar  
    35    22    38 1   
    36    23    24 ar  
    37    23    40 1   
    38    24    25 ar  
    39    24    41 1   
    40    25    26 ar  
    41    25    42 1   
    42    26    39 1   
@<TRIPOS>SUBSTRUCTURE
     1 PL7         1 TEMP              0 ****  ****    0 ROOT
