@<TRIPOS>MOLECULE
PL7
   42    42     1     0     0
SMALL
bcc


@<TRIPOS>ATOM
      1 O16          1.5060     3.5090    -5.5370 o          1 PL7      -0.885800
      2 C9           2.1870     3.6640    -4.5010 c          1 PL7       0.935600
      3 O17          3.4310     3.7050    -4.4370 o          1 PL7      -0.885800
      4 C10          1.3890     3.8250    -3.1950 c3         1 PL7      -0.186400
      5 C11          2.2350     3.9240    -1.9270 c3         1 PL7      -0.104700
      6 C8           1.3750     4.1410    -0.7200 ce         1 PL7       0.296300
      7 C12          1.0200     5.5700    -0.2960 c          1 PL7       0.842300
      8 O19          0.4000     5.7180     0.7710 o          1 PL7      -0.842800
      9 O18          1.3870     6.4620    -1.0850 o          1 PL7      -0.842800
     10 N1           0.8430     3.2160    -0.0240 n2         1 PL7      -0.468200
     11 O13          1.1580     1.9610    -0.4660 os         1 PL7      -0.192300
     12 C5           0.4590     0.9890     0.2840 c3         1 PL7       0.161400
     13 C3           0.9340    -0.3740    -0.1860 c3         1 PL7      -0.054300
     14 C4           0.6730    -0.5590    -1.7070 c          1 PL7       0.947600
     15 O14          1.6510    -0.8540    -2.4170 o          1 PL7      -0.825800
     16 N2           2.3330    -0.5940     0.0940 ns         1 PL7      -0.499900
     17 C6           2.8330    -0.8580     1.3010 c          1 PL7       0.658100
     18 O15          2.1700    -0.9480     2.3230 o          1 PL7      -0.651100
     19 C7           4.3490    -1.0000     1.3100 c3         1 PL7       0.025400
     20 O34          4.7070    -1.6610     2.4940 os         1 PL7      -0.282900
     21 C35          6.0180    -1.8220     2.7740 ca         1 PL7       0.170100
     22 C40          7.0560    -1.4240     1.9370 ca         1 PL7      -0.195000
     23 C39          8.3740    -1.6380     2.3290 ca         1 PL7      -0.101000
     24 C38          8.6700    -2.2440     3.5400 ca         1 PL7      -0.201000
     25 C37          7.6250    -2.6420     4.3690 ca         1 PL7      -0.101000
     26 C36          6.3100    -2.4350     3.9950 ca         1 PL7      -0.195000
     27 OXT         -0.5080    -0.4090    -2.0610 o          1 PL7      -0.825800
     28 H101         0.7650     4.7200    -3.2840 hc         1 PL7       0.033700
     29 H102         0.6920     2.9860    -3.1100 hc         1 PL7       0.033700
     30 H111         2.9280     4.7560    -2.0210 hc         1 PL7       0.042200
     31 H112         2.8300     3.0170    -1.8200 hc         1 PL7       0.042200
     32 H5C1         0.6480     1.1160     1.3540 h1         1 PL7       0.019700
     33 H5C2        -0.6200     1.0670     0.1230 h1         1 PL7       0.019700
     34 H3           0.3350    -1.1210     0.3470 h1         1 PL7       0.031700
     35 H2           2.9220    -0.6330    -0.7280 hn         1 PL7       0.347500
     36 H7C1         4.6880    -1.5470     0.4230 h1         1 PL7       0.052700
     37 H7C2         4.7880     0.0050     1.2610 h1         1 PL7       0.052700
     38 H40          6.8630    -0.9520     0.9830 ha         1 PL7       0.147500
     39 H36          5.4980    -2.7420     4.6430 ha         1 PL7       0.147500
     40 H39          9.1740    -1.3250     1.6700 ha         1 PL7       0.112500
     41 H38          9.6970    -2.4040     3.8370 ha         1 PL7       0.109000
     42 H37          7.8380    -3.1170     5.3180 ha         1 PL7       0.112500
@<TRIPOS>BOND
     1     1     2 1   
     2     2     3 1   
     3     2     4 1   
     4     4     5 1   
     5     4    28 1   
     6     4    29 1   
     7     5     6 1   
     8     5    30 1   
     9     5    31 1   
    10     6     7 1   
    11     6    10 2   
    12     7     8 1   
    13     7     9 1   
    14    10    11 1   
    15    11    12 1   
    16    12    13 1   
    17    12    32 1   
    18    12    33 1   
    19    13    14 1   
    20    13    16 1   
    21    13    34 1   
    22    14    15 1   
    23    14    27 1   
    24    16    17 1   
    25    16    35 1   
    26    17    18 2   
    27    17    19 1   
    28    19    20 1   
    29    19    36 1   
    30    19    37 1   
    31    20    21 1   
    32    21    22 ar  
    33    21    26 ar  
    34    22    23 ar  
    35    22    38 1   
    36    23    24 ar  
    37    23    40 1   
    38    24    25 ar  
    39    24    41 1   
    40    25    26 ar  
    41    25    42 1   
    42    26    39 1   
@<TRIPOS>SUBSTRUCTURE
     1 PL7         1 TEMP              0 ****  ****    0 ROOT
