@<TRIPOS>MOLECULE
PLB
   37    39     1     0     0
SMALL
No Charge or Current Charge


@<TRIPOS>ATOM
      1 Cl20         1.1500     0.4650     7.4780 cl         1 PLB      -0.218000
      2 C16          0.5670     0.3160     5.8250 ca         1 PLB       0.131000
      3 C15         -0.7460    -0.1010     5.5810 ca         1 PLB      -0.122000
      4 C14         -1.2230    -0.2230     4.2640 ca         1 PLB       0.163000
      5 Cl19        -2.8760    -0.8190     4.0800 cl         1 PLB      -0.184000
      6 C17          1.4170     0.6130     4.7540 ca         1 PLB      -0.111000
      7 C18          0.9530     0.4940     3.4320 ca         1 PLB      -0.051000
      8 C13         -0.3760     0.0750     3.1610 ca         1 PLB      -0.118600
      9 C11         -0.8550    -0.0310     1.7240 c          1 PLB       0.616700
     10 O12         -2.0270     0.1390     1.4060 o          1 PLB      -0.616100
     11 N10          0.1460    -0.2840     0.7970 ns         1 PLB      -0.161000
     12 C2           0.1620    -0.3760    -0.6230 ca         1 PLB       0.010000
     13 C3          -0.9140     0.0920    -1.4120 ca         1 PLB      -0.167000
     14 C4          -0.8790    -0.0090    -2.8120 ca         1 PLB      -0.093000
     15 C5           0.2410    -0.5690    -3.4460 ca         1 PLB       0.034100
     16 C6           1.3140    -1.0420    -2.6770 ca         1 PLB      -0.048000
     17 C1           1.2990    -0.9440    -1.2660 ca         1 PLB      -0.194600
     18 C7           2.4980    -1.4650    -0.4940 c          1 PLB       0.725600
     19 O9           2.7940    -0.9330     0.5670 o          1 PLB      -0.698500
     20 O8           3.1340    -2.3900    -0.9770 o          1 PLB      -0.698500
     21 O21          0.2920    -0.6950    -4.8180 os         1 PLB      -0.335400
     22 C22         -0.0820     0.3110    -5.6840 ca         1 PLB       0.358300
     23 N27          0.1080     1.5990    -5.3070 nb         1 PLB      -0.204500
     24 C26         -0.2570     2.5600    -6.1760 ca         1 PLB       0.138400
     25 C25         -0.8090     2.2420    -7.4250 ca         1 PLB      -0.284000
     26 C24         -0.9650     0.8840    -7.7360 ca         1 PLB       0.138400
     27 N23         -0.6010    -0.0800    -6.8700 nb         1 PLB      -0.204500
     28 H15         -1.3980    -0.3400     6.4160 ha         1 PLB       0.133000
     29 H17          2.4360     0.9410     4.9450 ha         1 PLB       0.131000
     30 H18          1.6380     0.7560     2.6280 ha         1 PLB       0.147000
     31 H10          1.0580    -0.4460     1.2100 hn         1 PLB       0.239000
     32 H3          -1.7880     0.5490    -0.9600 ha         1 PLB       0.135000
     33 H4          -1.7220     0.3480    -3.3990 ha         1 PLB       0.104000
     34 H6           2.1700    -1.4780    -3.1870 ha         1 PLB       0.146000
     35 H26         -0.1040     3.5930    -5.8670 h4         1 PLB       0.017100
     36 H25         -1.1030     3.0190    -8.1260 ha         1 PLB       0.125000
     37 H24         -1.3840     0.5620    -8.6880 h4         1 PLB       0.017100
@<TRIPOS>BOND
     1     1     2 1   
     2     2     3 ar  
     3     2     6 ar  
     4     3     4 ar  
     5     3    28 1   
     6     4     5 1   
     7     4     8 ar  
     8     6     7 ar  
     9     6    29 1   
    10     7     8 ar  
    11     7    30 1   
    12     8     9 1   
    13     9    10 2   
    14     9    11 1   
    15    11    12 1   
    16    11    31 1   
    17    12    13 ar  
    18    12    17 ar  
    19    13    14 ar  
    20    13    32 1   
    21    14    15 ar  
    22    14    33 1   
    23    15    16 ar  
    24    15    21 1   
    25    16    17 ar  
    26    16    34 1   
    27    17    18 1   
    28    18    19 1   
    29    18    20 1   
    30    21    22 1   
    31    22    23 ar  
    32    22    27 ar  
    33    23    24 ar  
    34    24    25 ar  
    35    24    35 1   
    36    25    26 ar  
    37    25    36 1   
    38    26    27 ar  
    39    26    37 1   
@<TRIPOS>SUBSTRUCTURE
     1 PLB         1 TEMP              0 ****  ****    0 ROOT
