@<TRIPOS>MOLECULE
PLB
   37    39     1     0     0
SMALL
abcg2


@<TRIPOS>ATOM
      1 CL20         1.4480     0.4900     7.2390 cl         1 PLB      -0.218000
      2 C16          0.7860     0.3570     5.6490 ca         1 PLB       0.131000
      3 C15         -0.4180    -0.3070     5.4770 ca         1 PLB      -0.122000
      4 C14         -0.9510    -0.4040     4.2010 ca         1 PLB       0.163000
      5 CL19        -2.4330    -1.2740     4.0230 cl         1 PLB      -0.184000
      6 C17          1.4660     0.9060     4.5750 ca         1 PLB      -0.111000
      7 C18          0.9190     0.7810     3.3090 ca         1 PLB      -0.051000
      8 C13         -0.2960     0.1340     3.0960 ca         1 PLB      -0.118600
      9 C11         -0.8860     0.0930     1.7170 c          1 PLB       0.616700
     10 O12         -2.0420     0.4270     1.5190 o          1 PLB      -0.616100
     11 N10         -0.0050    -0.3180     0.7880 ns         1 PLB      -0.161000
     12 C2          -0.1480    -0.4120    -0.5940 ca         1 PLB       0.010000
     13 C3          -1.3410    -0.1310    -1.2680 ca         1 PLB      -0.167000
     14 C4          -1.4160    -0.2520    -2.6450 ca         1 PLB      -0.093000
     15 C5          -0.3020    -0.6520    -3.3600 ca         1 PLB       0.034100
     16 C6           0.8830    -0.9280    -2.7110 ca         1 PLB      -0.048000
     17 C1           0.9850    -0.8220    -1.3280 ca         1 PLB      -0.194600
     18 C7           2.3310    -1.1590    -0.6890 c          1 PLB       0.725600
     19 O9           2.4020    -1.1100     0.5690 o          1 PLB      -0.698500
     20 O8           3.2580    -1.4610    -1.4480 o          1 PLB      -0.698500
     21 O21         -0.3850    -0.8470    -4.7250 os         1 PLB      -0.335400
     22 C22         -0.2930     0.2060    -5.5480 ca         1 PLB       0.358300
     23 N27         -0.0870     1.4040    -5.0390 nb         1 PLB      -0.204500
     24 C26         -0.0100     2.4020    -5.9120 ca         1 PLB       0.138400
     25 C25         -0.1330     2.2040    -7.2750 ca         1 PLB      -0.284000
     26 C24         -0.3410     0.8950    -7.6810 ca         1 PLB       0.138400
     27 N23         -0.4240    -0.1120    -6.8240 nb         1 PLB      -0.204500
     28 H15         -0.9330    -0.7460     6.3200 ha         1 PLB       0.133000
     29 H17          2.4030     1.4250     4.7170 ha         1 PLB       0.131000
     30 H18          1.4460     1.2160     2.4700 ha         1 PLB       0.147000
     31 H10          0.9550    -0.6250     1.0590 hn         1 PLB       0.239000
     32 H3          -2.2170     0.1780    -0.7240 ha         1 PLB       0.135000
     33 H4          -2.3490    -0.0390    -3.1510 ha         1 PLB       0.104000
     34 H6           1.7500    -1.2440    -3.2760 ha         1 PLB       0.146000
     35 H26          0.1580     3.3910    -5.5020 h4         1 PLB       0.017100
     36 H25         -0.0700     3.0180    -7.9800 ha         1 PLB       0.125000
     37 H24         -0.4460     0.6470    -8.7310 h4         1 PLB       0.017100
@<TRIPOS>BOND
     1     1     2 1   
     2     2     3 ar  
     3     2     6 ar  
     4     3     4 ar  
     5     3    28 1   
     6     4     5 1   
     7     4     8 ar  
     8     6     7 ar  
     9     6    29 1   
    10     7     8 ar  
    11     7    30 1   
    12     8     9 1   
    13     9    10 2   
    14     9    11 1   
    15    11    12 1   
    16    11    31 1   
    17    12    13 ar  
    18    12    17 ar  
    19    13    14 ar  
    20    13    32 1   
    21    14    15 ar  
    22    14    33 1   
    23    15    16 ar  
    24    15    21 1   
    25    16    17 ar  
    26    16    34 1   
    27    17    18 1   
    28    18    19 1   
    29    18    20 1   
    30    21    22 1   
    31    22    23 ar  
    32    22    27 ar  
    33    23    24 ar  
    34    24    25 ar  
    35    24    35 1   
    36    25    26 ar  
    37    25    36 1   
    38    26    27 ar  
    39    26    37 1   
@<TRIPOS>SUBSTRUCTURE
     1 PLB         1 TEMP              0 ****  ****    0 ROOT
