@<TRIPOS>MOLECULE
PLC
  106   105     1     0     0
SMALL
bcc


@<TRIPOS>ATOM
      1 C1          -3.5570     2.2240    -0.8670 c3         1 PLC       0.178400
      2 C2          -2.3210     3.0240    -1.2310 c3         1 PLC       0.148100
      3 C3          -1.5570     3.6170    -0.0690 c3         1 PLC       0.149400
      4 C4          -4.1170    -2.2340     1.3920 c3         1 PLC       0.188400
      5 C5          -3.2880    -2.8480     2.4950 c3         1 PLC       0.113800
      6 C6          -4.4790    -1.6600     4.3080 c3         1 PLC       0.101100
      7 C7          -2.4830    -2.9630     4.7640 c3         1 PLC       0.101100
      8 C8          -2.2970    -0.8550     3.5980 c3         1 PLC       0.101100
      9 C10         -0.5120     1.2500    -3.9190 c3         1 PLC      -0.137400
     10 C11         -0.4700     1.3010    -5.4380 c3         1 PLC      -0.068400
     11 C12          0.5980     0.3720    -6.0030 c3         1 PLC      -0.075400
     12 C13          0.6890     0.4240    -7.5220 c3         1 PLC      -0.074400
     13 C14          1.7560    -0.5040    -8.0880 c3         1 PLC      -0.074400
     14 C15          1.8670    -0.4450    -9.6060 c3         1 PLC      -0.074400
     15 C16          2.9390    -1.3720   -10.1660 c3         1 PLC      -0.074400
     16 C17          3.0580    -1.3110   -11.6840 c3         1 PLC      -0.075400
     17 C9           4.1320    -2.2360   -12.2420 c3         1 PLC      -0.075400
     18 CA           4.2500    -2.1770   -13.7600 c3         1 PLC      -0.074400
     19 CB           5.3270    -3.1030   -14.3080 c3         1 PLC      -0.088100
     20 C18         -0.3330     2.9200     1.8180 c          1 PLC       0.641100
     21 C1B          0.2840     1.7220     2.4870 c3         1 PLC      -0.138400
     22 C2B          0.7640     1.9910     3.9040 c3         1 PLC      -0.073400
     23 C3B          1.3670     0.7500     4.5490 c3         1 PLC      -0.071400
     24 C4B          1.8720     1.0100     5.9630 c3         1 PLC      -0.079400
     25 C5B          2.4750    -0.2230     6.6240 c3         1 PLC      -0.072400
     26 C6B          2.9960     0.0490     8.0300 c3         1 PLC      -0.076400
     27 C7B          3.6060    -1.1780     8.6960 c3         1 PLC      -0.073400
     28 C8B          4.1340    -0.8990    10.0980 c3         1 PLC      -0.075400
     29 C9B          4.7500    -2.1210    10.7660 c3         1 PLC      -0.075400
     30 CAA          5.2770    -1.8420    12.1680 c3         1 PLC      -0.075400
     31 CBA          5.8970    -3.0680    12.8230 c3         1 PLC      -0.088100
     32 O           -2.4260     2.7120    -3.9190 o          1 PLC      -0.544000
     33 OB          -0.2830     4.0520     2.2310 o          1 PLC      -0.549000
     34 O2          -1.4000     2.2360    -1.9900 os         1 PLC      -0.404900
     35 O3          -0.9460     2.5800     0.6910 os         1 PLC      -0.380900
     36 O1P         -5.4850    -0.1180    -0.4850 o          1 PLC      -0.816000
     37 O2P         -4.8070     0.8230     1.8330 o          1 PLC      -0.816000
     38 O3P         -3.2080     1.0440    -0.1790 os         1 PLC      -0.550200
     39 O4P         -3.4850    -1.1210     0.8030 os         1 PLC      -0.548200
     40 N           -3.1480    -2.0660     3.7760 n4         1 PLC      -0.598800
     41 P           -4.4230     0.2040     0.5190 p5         1 PLC       1.374800
     42 H11         -4.1970     2.8790    -0.2630 h1         1 PLC       0.044200
     43 H12         -4.1130     1.9900    -1.7810 h1         1 PLC       0.044200
     44 H2          -2.6700     3.8780    -1.8200 h1         1 PLC       0.065700
     45 H31         -2.2510     4.1960     0.5440 h1         1 PLC       0.053200
     46 H32         -0.7930     4.3020    -0.4470 h1         1 PLC       0.053200
     47 H41         -5.1250    -2.0120     1.7560 h1         1 PLC       0.056200
     48 H42         -4.2350    -3.0280     0.6480 h1         1 PLC       0.056200
     49 H51         -3.7550    -3.7940     2.7700 hx         1 PLC       0.079700
     50 H52         -2.2760    -3.0620     2.1500 hx         1 PLC       0.079700
     51 H61         -4.9140    -0.9040     3.6600 hx         1 PLC       0.095811
     52 H62         -5.1240    -2.5330     4.3620 hx         1 PLC       0.095811
     53 H63         -4.3420    -1.2460     5.3040 hx         1 PLC       0.095811
     54 H71         -2.3500    -2.4260     5.6980 hx         1 PLC       0.095811
     55 H72         -1.5150    -3.2660     4.3720 hx         1 PLC       0.095811
     56 H73         -3.1030    -3.8400     4.9300 hx         1 PLC       0.095811
     57 H81         -2.8210    -0.1170     3.0030 hx         1 PLC       0.095811
     58 H82         -2.0810    -0.4410     4.5800 hx         1 PLC       0.095811
     59 H83         -1.3700    -1.1510     3.1140 hx         1 PLC       0.095811
     60 H1'1         0.4640     1.5060    -3.4960 hc         1 PLC       0.071200
     61 H1'2        -0.7200     0.2290    -3.5790 hc         1 PLC       0.071200
     62 H2'1        -1.4450     1.0260    -5.8480 hc         1 PLC       0.054200
     63 H2'2        -0.2710     2.3250    -5.7670 hc         1 PLC       0.054200
     64 H3'1         1.5710     0.6320    -5.5730 hc         1 PLC       0.035700
     65 H3'2         0.3910    -0.6550    -5.6850 hc         1 PLC       0.035700
     66 H4'1        -0.2840     0.1660    -7.9550 hc         1 PLC       0.040200
     67 H4'2         0.8990     1.4520    -7.8380 hc         1 PLC       0.040200
     68 H5'1         2.7260    -0.2520    -7.6440 hc         1 PLC       0.035700
     69 H5'2         1.5420    -1.5330    -7.7790 hc         1 PLC       0.035700
     70 H6'1         0.8990    -0.6990   -10.0510 hc         1 PLC       0.038200
     71 H6'2         2.0820     0.5840    -9.9140 hc         1 PLC       0.038200
     72 H7'1         2.7230    -2.4020    -9.8600 hc         1 PLC       0.036200
     73 H7'2         3.9060    -1.1190    -9.7170 hc         1 PLC       0.036200
     74 H8'1         2.0910    -1.5650   -12.1340 hc         1 PLC       0.037200
     75 H8'2         3.2730    -0.2810   -11.9900 hc         1 PLC       0.037200
     76 H9'1         5.0990    -1.9810   -11.7930 hc         1 PLC       0.036700
     77 H9'2         3.9180    -3.2660   -11.9350 hc         1 PLC       0.036700
     78 HT'1         3.2850    -2.4330   -14.2080 hc         1 PLC       0.036700
     79 HT'2         4.4630    -1.1490   -14.0670 hc         1 PLC       0.036700
     80 HE'1         5.3840    -3.0520   -15.3960 hc         1 PLC       0.030700
     81 HE'2         6.3110    -2.8420   -13.9130 hc         1 PLC       0.030700
     82 HE'3         5.1310    -4.1420   -14.0360 hc         1 PLC       0.030700
     83 H1A1         1.1170     1.3820     1.8620 hc         1 PLC       0.065700
     84 H1A2        -0.4420     0.9060     2.4680 hc         1 PLC       0.065700
     85 H2A1        -0.0690     2.3490     4.5160 hc         1 PLC       0.057200
     86 H2A2         1.5070     2.7920     3.8940 hc         1 PLC       0.057200
     87 H3A1         2.1920     0.3790     3.9310 hc         1 PLC       0.027200
     88 H3A2         0.6220    -0.0530     4.5740 hc         1 PLC       0.027200
     89 H4A1         1.0480     1.3870     6.5790 hc         1 PLC       0.043700
     90 H4A2         2.6210     1.8090     5.9350 hc         1 PLC       0.043700
     91 H5A1         3.2920    -0.6050     6.0020 hc         1 PLC       0.032200
     92 H5A2         1.7240    -1.0200     6.6620 hc         1 PLC       0.032200
     93 H6A1         2.1790     0.4310     8.6520 hc         1 PLC       0.040700
     94 H6A2         3.7450     0.8480     7.9880 hc         1 PLC       0.040700
     95 H7A1         4.4200    -1.5630     8.0720 hc         1 PLC       0.035200
     96 H7A2         2.8570    -1.9760     8.7440 hc         1 PLC       0.035200
     97 H8A1         3.3190    -0.5150    10.7220 hc         1 PLC       0.038200
     98 H8A2         4.8800    -0.0980    10.0490 hc         1 PLC       0.038200
     99 H9A1         5.5660    -2.5030    10.1420 hc         1 PLC       0.036200
    100 H9A2         4.0050    -2.9240    10.8140 hc         1 PLC       0.036200
    101 HTA1         4.4600    -1.4640    12.7910 hc         1 PLC       0.037700
    102 HTA2         6.0180    -1.0380    12.1220 hc         1 PLC       0.037700
    103 HEA1         6.7420    -3.4380    12.2390 hc         1 PLC       0.031700
    104 HEA2         5.1740    -3.8810    12.9050 hc         1 PLC       0.031700
    105 HEA3         6.2620    -2.8480    13.8270 hc         1 PLC       0.031700
    106 C           -1.5530     2.1470    -3.3100 c          1 PLC       0.647100
@<TRIPOS>BOND
     1     1     2 1   
     2     1    38 1   
     3     1    42 1   
     4     1    43 1   
     5     2     3 1   
     6     2    34 1   
     7     2    44 1   
     8     3    35 1   
     9     3    45 1   
    10     3    46 1   
    11     4     5 1   
    12     4    39 1   
    13     4    47 1   
    14     4    48 1   
    15     5    40 1   
    16     5    49 1   
    17     5    50 1   
    18     6    40 1   
    19     6    51 1   
    20     6    52 1   
    21     6    53 1   
    22     7    40 1   
    23     7    54 1   
    24     7    55 1   
    25     7    56 1   
    26     8    40 1   
    27     8    57 1   
    28     8    58 1   
    29     8    59 1   
    30     9    10 1   
    31     9    60 1   
    32     9    61 1   
    33     9   106 1   
    34    10    11 1   
    35    10    62 1   
    36    10    63 1   
    37    11    12 1   
    38    11    64 1   
    39    11    65 1   
    40    12    13 1   
    41    12    66 1   
    42    12    67 1   
    43    13    14 1   
    44    13    68 1   
    45    13    69 1   
    46    14    15 1   
    47    14    70 1   
    48    14    71 1   
    49    15    16 1   
    50    15    72 1   
    51    15    73 1   
    52    16    17 1   
    53    16    74 1   
    54    16    75 1   
    55    17    18 1   
    56    17    76 1   
    57    17    77 1   
    58    18    19 1   
    59    18    78 1   
    60    18    79 1   
    61    19    80 1   
    62    19    81 1   
    63    19    82 1   
    64    20    21 1   
    65    20    33 2   
    66    20    35 1   
    67    21    22 1   
    68    21    83 1   
    69    21    84 1   
    70    22    23 1   
    71    22    85 1   
    72    22    86 1   
    73    23    24 1   
    74    23    87 1   
    75    23    88 1   
    76    24    25 1   
    77    24    89 1   
    78    24    90 1   
    79    25    26 1   
    80    25    91 1   
    81    25    92 1   
    82    26    27 1   
    83    26    93 1   
    84    26    94 1   
    85    27    28 1   
    86    27    95 1   
    87    27    96 1   
    88    28    29 1   
    89    28    97 1   
    90    28    98 1   
    91    29    30 1   
    92    29    99 1   
    93    29   100 1   
    94    30    31 1   
    95    30   101 1   
    96    30   102 1   
    97    31   103 1   
    98    31   104 1   
    99    31   105 1   
   100    32   106 2   
   101    34   106 1   
   102    36    41 1   
   103    37    41 1   
   104    38    41 1   
   105    39    41 1   
@<TRIPOS>SUBSTRUCTURE
     1 PLC         1 TEMP              0 ****  ****    0 ROOT
