@<TRIPOS>MOLECULE
PLC
  106   105     1     0     0
SMALL
No Charge or Current Charge


@<TRIPOS>ATOM
      1 C1          -4.2730     2.4130    -0.1490 c3         1 PLC       0.201600
      2 C2          -3.0610     2.8110    -1.0580 c3         1 PLC       0.171300
      3 C3          -1.8380     3.4480    -0.3440 c3         1 PLC       0.172600
      4 C4          -1.8850    -1.1470     1.2090 c3         1 PLC       0.211600
      5 C5          -1.7160    -0.0930     2.3480 c3         1 PLC       0.085600
      6 C6          -2.9110    -1.6220     4.0280 c3         1 PLC       0.072900
      7 C7          -1.5500     0.3000     4.8220 c3         1 PLC       0.072900
      8 C8          -3.7110     0.7280     3.6950 c3         1 PLC       0.072900
      9 C10         -2.7340     0.1930    -3.7400 c3         1 PLC      -0.137400
     10 C11         -1.6670     0.6820    -4.7460 c3         1 PLC      -0.068400
     11 C12         -0.9890    -0.4730    -5.5160 c3         1 PLC      -0.075400
     12 C13          0.0790     0.0150    -6.5190 c3         1 PLC      -0.074400
     13 C14          0.7570    -1.1390    -7.2880 c3         1 PLC      -0.074400
     14 C15          1.8260    -0.6520    -8.2910 c3         1 PLC      -0.074400
     15 C16          2.5040    -1.8070    -9.0600 c3         1 PLC      -0.074400
     16 C17          3.5730    -1.3200   -10.0630 c3         1 PLC      -0.075400
     17 C9           4.2520    -2.4740   -10.8320 c3         1 PLC      -0.075400
     18 CA           5.3200    -1.9880   -11.8340 c3         1 PLC      -0.074400
     19 CB           5.9970    -3.1400   -12.6020 c3         1 PLC      -0.088100
     20 C18          0.2560     2.8560     0.6700 c          1 PLC       0.592100
     21 C1B          1.0970     1.6970     1.2110 c3         1 PLC      -0.138400
     22 C2B          1.2740     1.7980     2.7440 c3         1 PLC      -0.073400
     23 C3B          1.9770     0.5670     3.3570 c3         1 PLC      -0.071400
     24 C4B          2.2000     0.6960     4.8800 c3         1 PLC      -0.079400
     25 C5B          2.8280    -0.5680     5.5060 c3         1 PLC      -0.072400
     26 C6B          3.0440    -0.4430     7.0300 c3         1 PLC      -0.076400
     27 C7B          3.6680    -1.7090     7.6570 c3         1 PLC      -0.073400
     28 C8B          3.8830    -1.5850     9.1810 c3         1 PLC      -0.075400
     29 C9B          4.5070    -2.8510     9.8080 c3         1 PLC      -0.075400
     30 CAA          4.7230    -2.7270    11.3320 c3         1 PLC      -0.075400
     31 CBA          5.3450    -3.9900    11.9580 c3         1 PLC      -0.088100
     32 O           -4.3100     2.0140    -3.4190 o          1 PLC      -0.495000
     33 OB           0.6940     3.9900     0.5320 o          1 PLC      -0.500000
     34 O2          -2.6130     1.7220    -1.8990 os         1 PLC      -0.428100
     35 O3          -0.9940     2.4530     0.2730 os         1 PLC      -0.404100
     36 O1P         -4.9200    -0.3420    -1.0460 o          1 PLC      -0.816000
     37 O2P         -4.8780    -1.0720     1.2910 o          1 PLC      -0.816000
     38 O3P         -4.0320     1.2970     0.7350 os         1 PLC      -0.573400
     39 O4P         -2.6540    -0.6440     0.1030 os         1 PLC      -0.571400
     40 N           -2.4780    -0.1840     3.7010 n4         1 PLC      -0.486000
     41 P           -4.2020    -0.2380     0.2570 p5         1 PLC       1.374800
     42 H11         -4.5430     3.2920     0.4510 h1         1 PLC       0.044200
     43 H12         -5.1410     2.2130    -0.7900 h1         1 PLC       0.044200
     44 H2          -3.4380     3.6200    -1.6980 h1         1 PLC       0.065700
     45 H31         -2.1830     4.1790     0.3980 h1         1 PLC       0.053200
     46 H32         -1.2720     3.9980    -1.1090 h1         1 PLC       0.053200
     47 H41         -2.3180    -2.0780     1.5920 h1         1 PLC       0.056200
     48 H42         -0.8810    -1.4020     0.8500 h1         1 PLC       0.056200
     49 H51         -0.6620    -0.1490     2.6210 hx         1 PLC       0.079700
     50 H52         -1.8760     0.9050     1.9360 hx         1 PLC       0.079700
     51 H61         -3.6210    -1.9650     3.2730 hx         1 PLC       0.095811
     52 H62         -2.0340    -2.2720     4.0360 hx         1 PLC       0.095811
     53 H63         -3.3900    -1.6390     5.0090 hx         1 PLC       0.095811
     54 H71         -2.0740     0.2330     5.7780 hx         1 PLC       0.095811
     55 H72         -1.2660     1.3370     4.6330 hx         1 PLC       0.095811
     56 H73         -0.6580    -0.3290     4.8490 hx         1 PLC       0.095811
     57 H81         -4.4390     0.3570     2.9750 hx         1 PLC       0.095811
     58 H82         -4.1600     0.7340     4.6900 hx         1 PLC       0.095811
     59 H83         -3.4100     1.7410     3.4200 hx         1 PLC       0.095811
     60 H1'1        -2.2340    -0.4620    -3.0170 hc         1 PLC       0.071200
     61 H1'2        -3.5160    -0.3530    -4.2790 hc         1 PLC       0.071200
     62 H2'1        -2.1350     1.3700    -5.4620 hc         1 PLC       0.054200
     63 H2'2        -0.9000     1.2550    -4.2080 hc         1 PLC       0.054200
     64 H3'1        -0.5230    -1.1590    -4.7990 hc         1 PLC       0.035700
     65 H3'2        -1.7550    -1.0440    -6.0550 hc         1 PLC       0.035700
     66 H4'1        -0.3870     0.7020    -7.2370 hc         1 PLC       0.040200
     67 H4'2         0.8450     0.5870    -5.9800 hc         1 PLC       0.040200
     68 H5'1         1.2230    -1.8260    -6.5700 hc         1 PLC       0.035700
     69 H5'2        -0.0080    -1.7110    -7.8280 hc         1 PLC       0.035700
     70 H6'1         1.3600     0.0340    -9.0090 hc         1 PLC       0.038200
     71 H6'2         2.5910    -0.0800    -7.7520 hc         1 PLC       0.038200
     72 H7'1         1.7390    -2.3790    -9.5990 hc         1 PLC       0.036200
     73 H7'2         2.9700    -2.4930    -8.3420 hc         1 PLC       0.036200
     74 H8'1         3.1070    -0.6330   -10.7810 hc         1 PLC       0.037200
     75 H8'2         4.3390    -0.7480    -9.5230 hc         1 PLC       0.037200
     76 H9'1         4.7180    -3.1610   -10.1140 hc         1 PLC       0.036700
     77 H9'2         3.4860    -3.0470   -11.3710 hc         1 PLC       0.036700
     78 HT'1         4.8580    -1.3030   -12.5560 hc         1 PLC       0.036700
     79 HT'2         6.0890    -1.4170   -11.2980 hc         1 PLC       0.036700
     80 HE'1         6.7460    -2.7460   -13.2990 hc         1 PLC       0.030700
     81 HE'2         6.5010    -3.8250   -11.9090 hc         1 PLC       0.030700
     82 HE'3         5.2580    -3.7090   -13.1780 hc         1 PLC       0.030700
     83 H1A1         2.0870     1.7300     0.7420 hc         1 PLC       0.065700
     84 H1A2         0.6060     0.7480     0.9700 hc         1 PLC       0.065700
     85 H2A1         0.2920     1.9280     3.2150 hc         1 PLC       0.057200
     86 H2A2         1.8550     2.7000     2.9780 hc         1 PLC       0.057200
     87 H3A1         2.9470     0.4230     2.8650 hc         1 PLC       0.027200
     88 H3A2         1.3810    -0.3310     3.1540 hc         1 PLC       0.027200
     89 H4A1         1.2430     0.9040     5.3730 hc         1 PLC       0.043700
     90 H4A2         2.8510     1.5570     5.0760 hc         1 PLC       0.043700
     91 H5A1         3.7900    -0.7700     5.0200 hc         1 PLC       0.032200
     92 H5A2         2.1790    -1.4300     5.3040 hc         1 PLC       0.032200
     93 H6A1         2.0810    -0.2390     7.5140 hc         1 PLC       0.040700
     94 H6A2         3.6930     0.4170     7.2320 hc         1 PLC       0.040700
     95 H7A1         4.6310    -1.9130     7.1720 hc         1 PLC       0.035200
     96 H7A2         3.0180    -2.5690     7.4540 hc         1 PLC       0.035200
     97 H8A1         2.9200    -1.3810     9.6650 hc         1 PLC       0.038200
     98 H8A2         4.5330    -0.7240     9.3840 hc         1 PLC       0.038200
     99 H9A1         5.4710    -3.0550     9.3240 hc         1 PLC       0.036200
    100 H9A2         3.8580    -3.7110     9.6050 hc         1 PLC       0.036200
    101 HTA1         3.7610    -2.5250    11.8200 hc         1 PLC       0.037700
    102 HTA2         5.3740    -1.8690    11.5390 hc         1 PLC       0.037700
    103 HEA1         6.3260    -4.2000    11.5150 hc         1 PLC       0.031700
    104 HEA2         4.6990    -4.8610    11.7990 hc         1 PLC       0.031700
    105 HEA3         5.4790    -3.8550    13.0380 hc         1 PLC       0.031700
    106 C           -3.3680     1.3630    -2.9850 c          1 PLC       0.598100
@<TRIPOS>BOND
     1     1     2 1   
     2     1    38 1   
     3     1    42 1   
     4     1    43 1   
     5     2     3 1   
     6     2    34 1   
     7     2    44 1   
     8     3    35 1   
     9     3    45 1   
    10     3    46 1   
    11     4     5 1   
    12     4    39 1   
    13     4    47 1   
    14     4    48 1   
    15     5    40 1   
    16     5    49 1   
    17     5    50 1   
    18     6    40 1   
    19     6    51 1   
    20     6    52 1   
    21     6    53 1   
    22     7    40 1   
    23     7    54 1   
    24     7    55 1   
    25     7    56 1   
    26     8    40 1   
    27     8    57 1   
    28     8    58 1   
    29     8    59 1   
    30     9    10 1   
    31     9    60 1   
    32     9    61 1   
    33     9   106 1   
    34    10    11 1   
    35    10    62 1   
    36    10    63 1   
    37    11    12 1   
    38    11    64 1   
    39    11    65 1   
    40    12    13 1   
    41    12    66 1   
    42    12    67 1   
    43    13    14 1   
    44    13    68 1   
    45    13    69 1   
    46    14    15 1   
    47    14    70 1   
    48    14    71 1   
    49    15    16 1   
    50    15    72 1   
    51    15    73 1   
    52    16    17 1   
    53    16    74 1   
    54    16    75 1   
    55    17    18 1   
    56    17    76 1   
    57    17    77 1   
    58    18    19 1   
    59    18    78 1   
    60    18    79 1   
    61    19    80 1   
    62    19    81 1   
    63    19    82 1   
    64    20    21 1   
    65    20    33 2   
    66    20    35 1   
    67    21    22 1   
    68    21    83 1   
    69    21    84 1   
    70    22    23 1   
    71    22    85 1   
    72    22    86 1   
    73    23    24 1   
    74    23    87 1   
    75    23    88 1   
    76    24    25 1   
    77    24    89 1   
    78    24    90 1   
    79    25    26 1   
    80    25    91 1   
    81    25    92 1   
    82    26    27 1   
    83    26    93 1   
    84    26    94 1   
    85    27    28 1   
    86    27    95 1   
    87    27    96 1   
    88    28    29 1   
    89    28    97 1   
    90    28    98 1   
    91    29    30 1   
    92    29    99 1   
    93    29   100 1   
    94    30    31 1   
    95    30   101 1   
    96    30   102 1   
    97    31   103 1   
    98    31   104 1   
    99    31   105 1   
   100    32   106 2   
   101    34   106 1   
   102    36    41 1   
   103    37    41 1   
   104    38    41 1   
   105    39    41 1   
@<TRIPOS>SUBSTRUCTURE
     1 PLC         1 TEMP              0 ****  ****    0 ROOT
