@<TRIPOS>MOLECULE
PLE
   22    21     1     0     0
SMALL
bcc


@<TRIPOS>ATOM
      1 C1           3.5860     0.7100    -0.8000 c3         1 PLE      -0.072600
      2 C2           2.5790    -0.1420    -0.0320 c3         1 PLE      -0.065700
      3 C3           2.8900    -0.1150     1.4610 c3         1 PLE      -0.072600
      4 C4           1.1530     0.3300    -0.3230 c3         1 PLE      -0.032400
      5 C5           0.0290    -0.5360     0.2280 c3         1 PLE      -0.012700
      6 N1           0.1190    -1.8910    -0.3420 n8         1 PLE      -0.897800
      7 P1          -1.6480     0.2310    -0.0490 p5         1 PLE       1.116700
      8 O1          -1.6300     1.5730     0.6990 o          1 PLE      -0.929500
      9 O2          -1.7780     0.3750    -1.5760 o          1 PLE      -0.929500
     10 H1           4.6130     0.3910    -0.6110 hc         1 PLE       0.008033
     11 H2           3.4160     0.6530    -1.8770 hc         1 PLE       0.008033
     12 H3           3.5100     1.7620    -0.5120 hc         1 PLE       0.008033
     13 H4           2.6740    -1.1760    -0.3800 hc         1 PLE       0.043700
     14 H5           2.2420    -0.7860     2.0250 hc         1 PLE       0.008033
     15 H6           3.9210    -0.4150     1.6580 hc         1 PLE       0.008033
     16 H7           2.7570     0.8930     1.8650 hc         1 PLE       0.008033
     17 H8           1.0270     1.3440     0.0700 hc         1 PLE       0.039700
     18 H9           1.0150     0.4140    -1.4080 hc         1 PLE       0.039700
     19 H10          0.1690    -0.6350     1.3140 h1         1 PLE       0.021700
     20 H11         -0.6920    -2.4020    -0.0070 hn         1 PLE       0.315800
     21 H12         -0.0550    -1.7960    -1.3380 hn         1 PLE       0.315800
     22 O3          -2.6340    -0.7910     0.5480 o          1 PLE      -0.929500
@<TRIPOS>BOND
     1     1     2 1   
     2     1    10 1   
     3     1    11 1   
     4     1    12 1   
     5     2     3 1   
     6     2     4 1   
     7     2    13 1   
     8     3    14 1   
     9     3    15 1   
    10     3    16 1   
    11     4     5 1   
    12     4    17 1   
    13     4    18 1   
    14     5     6 1   
    15     5     7 1   
    16     5    19 1   
    17     6    20 1   
    18     6    21 1   
    19     7     8 1   
    20     7     9 1   
    21     7    22 1   
@<TRIPOS>SUBSTRUCTURE
     1 PLE         1 TEMP              0 ****  ****    0 ROOT
