@<TRIPOS>MOLECULE
PLE
   22    21     1     0     0
SMALL
No Charge or Current Charge


@<TRIPOS>ATOM
      1 C1           3.6370     0.7520    -0.7950 c3         1 PLE      -0.072600
      2 C2           2.6100    -0.1230    -0.0390 c3         1 PLE      -0.065700
      3 C3           2.8860    -0.0880     1.4850 c3         1 PLE      -0.072600
      4 C4           1.1510     0.2940    -0.4020 c3         1 PLE      -0.032400
      5 C5           0.0040    -0.6070     0.1570 c3         1 PLE      -0.170500
      6 N1           0.1470    -2.0340    -0.3530 n8         1 PLE      -1.008200
      7 P1          -1.6790     0.3160     0.0030 p5         1 PLE       1.274500
      8 O1          -1.6510     1.5600     0.8280 o          1 PLE      -0.929500
      9 O2          -1.9260     0.6550    -1.4300 o          1 PLE      -0.929500
     10 H1           4.6600     0.4230    -0.5800 hc         1 PLE       0.008033
     11 H2           3.4830     0.6830    -1.8790 hc         1 PLE       0.008033
     12 H3           3.5450     1.8050    -0.5020 hc         1 PLE       0.008033
     13 H4           2.7660    -1.1540    -0.3780 hc         1 PLE       0.043700
     14 H5           2.2510    -0.8030     2.0210 hc         1 PLE       0.008033
     15 H6           3.9290    -0.3550     1.6940 hc         1 PLE       0.008033
     16 H7           2.7010     0.9130     1.8930 hc         1 PLE       0.008033
     17 H8           0.9970     1.3200    -0.0460 hc         1 PLE       0.039700
     18 H9           1.0550     0.3390    -1.4940 hc         1 PLE       0.039700
     19 H10          0.1270    -0.6610     1.2450 h1         1 PLE       0.021700
     20 H11         -0.6110    -2.6030     0.0470 hn         1 PLE       0.371000
     21 H12         -0.0600    -2.0510    -1.3590 hn         1 PLE       0.371000
     22 O3          -2.7600    -0.5890     0.4950 o          1 PLE      -0.929500
@<TRIPOS>BOND
     1     1     2 1   
     2     1    10 1   
     3     1    11 1   
     4     1    12 1   
     5     2     3 1   
     6     2     4 1   
     7     2    13 1   
     8     3    14 1   
     9     3    15 1   
    10     3    16 1   
    11     4     5 1   
    12     4    17 1   
    13     4    18 1   
    14     5     6 1   
    15     5     7 1   
    16     5    19 1   
    17     6    20 1   
    18     6    21 1   
    19     7     8 1   
    20     7     9 1   
    21     7    22 1   
@<TRIPOS>SUBSTRUCTURE
     1 PLE         1 TEMP              0 ****  ****    0 ROOT
