@<TRIPOS>MOLECULE
PLF
   28    29     1     0     0
SMALL
bcc


@<TRIPOS>ATOM
      1 O           -2.5370    -1.5260     0.9360 o          1 PLF      -0.809300
      2 C1          -3.2220    -0.7460     0.2580 c          1 PLF       0.932600
      3 CA1         -2.5580     0.5770    -0.2140 c3         1 PLF      -0.111000
      4 CB1         -2.6740     0.7740    -1.7210 c3         1 PLF      -0.080100
      5 N2          -1.1760     0.6740     0.2160 na         1 PLF       0.173400
      6 C2          -0.1240    -0.0560    -0.1830 cc         1 PLF      -0.185600
      7 N3          -0.8240     1.5290     1.1560 nc         1 PLF      -0.235800
      8 N1           0.4410     1.3820     1.3790 nd         1 PLF      -0.401000
      9 C            0.9220     0.4150     0.5700 cd         1 PLF       0.215600
     10 CA           2.3550     0.0130     0.5500 c5         1 PLF       0.162200
     11 CB           3.2210     0.7890    -0.4610 c5         1 PLF      -0.075400
     12 CG           4.2830    -0.2290    -0.9230 c5         1 PLF      -0.082400
     13 CD           3.9390    -1.5120    -0.1590 c5         1 PLF       0.153800
     14 N            2.5190    -1.3640     0.1160 n7         1 PLF      -0.803200
     15 OXT         -4.4070    -0.8740    -0.0980 o          1 PLF      -0.809300
     16 HA1         -3.0660     1.4050     0.2860 h1         1 PLF       0.071700
     17 HB11        -2.2280    -0.0520    -2.2780 hc         1 PLF       0.030367
     18 HB12        -3.7230     0.8310    -2.0000 hc         1 PLF       0.030367
     19 HB13        -2.1880     1.6980    -2.0340 hc         1 PLF       0.030367
     20 H2          -0.1830    -0.8210    -0.9360 h4         1 PLF       0.189000
     21 HA           2.7690     0.1860     1.5570 h1         1 PLF       0.031700
     22 HB1C         2.6140     1.1250    -1.3020 hc         1 PLF       0.046700
     23 HB2C         3.6550     1.6750     0.0010 hc         1 PLF       0.046700
     24 H            2.2020    -2.0150     0.8230 hn         1 PLF       0.366800
     25 HG1C         4.2150    -0.3890    -2.0000 hc         1 PLF       0.034200
     26 HG2C         5.3000     0.0990    -0.7090 hc         1 PLF       0.034200
     27 HD1C         4.1350    -2.4170    -0.7360 h1         1 PLF       0.022700
     28 HD2C         4.5410    -1.5690     0.7590 h1         1 PLF       0.022700
@<TRIPOS>BOND
     1     1     2 1   
     2     2     3 1   
     3     2    15 1   
     4     3     4 1   
     5     3     5 1   
     6     3    16 1   
     7     4    17 1   
     8     4    18 1   
     9     4    19 1   
    10     5     6 1   
    11     5     7 1   
    12     6     9 2   
    13     6    20 1   
    14     7     8 2   
    15     8     9 1   
    16     9    10 1   
    17    10    11 1   
    18    10    14 1   
    19    10    21 1   
    20    11    12 1   
    21    11    22 1   
    22    11    23 1   
    23    12    13 1   
    24    12    25 1   
    25    12    26 1   
    26    13    14 1   
    27    13    27 1   
    28    13    28 1   
    29    14    24 1   
@<TRIPOS>SUBSTRUCTURE
     1 PLF         1 TEMP              0 ****  ****    0 ROOT
