@<TRIPOS>MOLECULE
PLF
   28    29     1     0     0
SMALL
No Charge or Current Charge


@<TRIPOS>ATOM
      1 O           -2.8950    -1.7830    -0.5720 o          1 PLF      -0.704000
      2 C1          -3.1210    -0.8180     0.1470 c          1 PLF       0.722000
      3 CA1         -2.5610     0.5590    -0.2560 c3         1 PLF      -0.081700
      4 CB1         -2.6720     0.8500    -1.7750 c3         1 PLF      -0.080100
      5 N2          -1.1880     0.7100     0.2430 na         1 PLF       0.194800
      6 C2          -0.0840    -0.0280    -0.1070 cc         1 PLF      -0.153000
      7 N3          -0.8730     1.6910     1.1490 nc         1 PLF      -0.235800
      8 N1           0.4080     1.5920     1.3900 nd         1 PLF      -0.401000
      9 C            0.9040     0.5530     0.6330 cd         1 PLF       0.150300
     10 CA           2.3420     0.0390     0.5500 c5         1 PLF       0.162200
     11 CB           3.0580     0.6660    -0.6700 c5         1 PLF      -0.075400
     12 CG           4.3190    -0.2410    -0.8110 c5         1 PLF      -0.082400
     13 CD           3.9440    -1.5400    -0.0330 c5         1 PLF       0.153800
     14 N            2.5050    -1.4040     0.2690 n7         1 PLF      -0.858400
     15 OXT         -3.7980    -0.8830     1.1630 o          1 PLF      -0.704000
     16 HA1         -3.1820     1.3010     0.2590 h1         1 PLF       0.071700
     17 HB11        -2.0590     0.1520    -2.3590 hc         1 PLF       0.030367
     18 HB12        -3.7120     0.7580    -2.1080 hc         1 PLF       0.030367
     19 HB13        -2.3320     1.8690    -1.9950 hc         1 PLF       0.030367
     20 H2          -0.0900    -0.8500    -0.8080 h4         1 PLF       0.171000
     21 HA           2.8640     0.3050     1.4820 h1         1 PLF       0.031700
     22 HB1C         2.4340     0.6110    -1.5710 hc         1 PLF       0.046700
     23 HB2C         3.3110     1.7200    -0.5120 hc         1 PLF       0.046700
     24 H            2.2570    -1.9650     1.0940 hn         1 PLF       0.422000
     25 HG1C         4.5460    -0.4470    -1.8630 hc         1 PLF       0.034200
     26 HG2C         5.2070     0.2300    -0.3760 hc         1 PLF       0.034200
     27 HD1C         4.1510    -2.4510    -0.6100 h1         1 PLF       0.022700
     28 HD2C         4.5180    -1.5970     0.9030 h1         1 PLF       0.022700
@<TRIPOS>BOND
     1     1     2 1   
     2     2     3 1   
     3     2    15 1   
     4     3     4 1   
     5     3     5 1   
     6     3    16 1   
     7     4    17 1   
     8     4    18 1   
     9     4    19 1   
    10     5     6 1   
    11     5     7 1   
    12     6     9 2   
    13     6    20 1   
    14     7     8 2   
    15     8     9 1   
    16     9    10 1   
    17    10    11 1   
    18    10    14 1   
    19    10    21 1   
    20    11    12 1   
    21    11    22 1   
    22    11    23 1   
    23    12    13 1   
    24    12    25 1   
    25    12    26 1   
    26    13    14 1   
    27    13    27 1   
    28    13    28 1   
    29    14    24 1   
@<TRIPOS>SUBSTRUCTURE
     1 PLF         1 TEMP              0 ****  ****    0 ROOT
