@<TRIPOS>MOLECULE
PLH
   52    52     1     0     0
SMALL
No Charge or Current Charge


@<TRIPOS>ATOM
      1 C1          -1.8540     0.7170     2.8160 c          1 PLH       0.605100
      2 C2          -1.3420    -0.1520     1.6610 c3         1 PLH      -0.163400
      3 C3           0.1440     0.1380     1.2810 c3         1 PLH      -0.127700
      4 C4           1.1370    -0.2980     2.4040 c3         1 PLH      -0.067400
      5 C5           2.6080     0.2000     2.2750 c3         1 PLH      -0.059700
      6 C6           3.3520     0.0450     3.6230 c3         1 PLH      -0.088100
      7 C7           3.4140    -0.4940     1.1490 c3         1 PLH      -0.088100
      8 C8           0.4470    -0.5050    -0.0880 c          1 PLH       0.600100
      9 C9           0.7550     0.0140    -2.5510 c3         1 PLH       0.022700
     10 C10          2.0720     0.4880    -3.2360 c          1 PLH       0.589100
     11 C11          4.2680     1.6690    -2.8880 c3         1 PLH       0.095300
     12 C12         -0.5040     0.5230    -3.2990 c3         1 PLH      -0.043100
     13 C13         -1.8090     0.1770    -2.5840 ca         1 PLH      -0.087300
     14 C14         -2.6200     1.1970    -2.0460 ca         1 PLH      -0.107500
     15 C15         -3.8110     0.8760    -1.3720 ca         1 PLH      -0.110500
     16 C16         -4.1990    -0.4670    -1.2300 ca         1 PLH      -0.117000
     17 C17         -3.3970    -1.4880    -1.7660 ca         1 PLH      -0.110500
     18 C18         -2.2070    -1.1670    -2.4420 ca         1 PLH      -0.107500
     19 N1          -2.1120     0.0350     3.9990 ns         1 PLH      -0.392400
     20 N2           0.6830     0.3890    -1.1130 ns         1 PLH      -0.515900
     21 O1          -2.3580     0.7510     5.2350 oh         1 PLH      -0.418100
     22 O2          -2.0570     1.9180     2.6900 o          1 PLH      -0.579100
     23 O3           0.4680    -1.7160    -0.2590 o          1 PLH      -0.585100
     24 O4           2.2960     0.3030    -4.4260 o          1 PLH      -0.607100
     25 H21         -1.9660     0.0690     0.7870 hc         1 PLH       0.075700
     26 H22         -1.4460    -1.2150     1.9100 hc         1 PLH       0.075700
     27 H3           0.2350     1.2250     1.1620 hc         1 PLH       0.077700
     28 H41          0.7480     0.0790     3.3580 hc         1 PLH       0.055200
     29 H42          1.1310    -1.3920     2.4930 hc         1 PLH       0.055200
     30 H5           2.5810     1.2740     2.0500 hc         1 PLH       0.048700
     31 H61          4.3720     0.4420     3.5540 hc         1 PLH       0.033867
     32 H62          2.8350     0.5940     4.4200 hc         1 PLH       0.033867
     33 H63          3.4130    -1.0100     3.9170 hc         1 PLH       0.033867
     34 H71          3.3670    -1.5850     1.2490 hc         1 PLH       0.033867
     35 H72          3.0450    -0.2190     0.1580 hc         1 PLH       0.033867
     36 H73          4.4690    -0.1960     1.1890 hc         1 PLH       0.033867
     37 H9           0.7730    -1.0810    -2.6260 h1         1 PLH       0.105700
     38 H111         4.7930     2.1370    -2.0450 h1         1 PLH       0.041033
     39 H112         4.8800     0.8480    -3.2840 h1         1 PLH       0.041033
     40 H113         4.1070     2.4170    -3.6750 h1         1 PLH       0.041033
     41 H121        -0.4200     1.6100    -3.4270 hc         1 PLH       0.069200
     42 H122        -0.5150     0.1010    -4.3120 hc         1 PLH       0.069200
     43 H14         -2.3260     2.2400    -2.1430 ha         1 PLH       0.116500
     44 H15         -4.4310     1.6680    -0.9570 ha         1 PLH       0.116500
     45 H16         -5.1200    -0.7150    -0.7070 ha         1 PLH       0.113000
     46 H17         -3.6960    -2.5280    -1.6560 ha         1 PLH       0.116500
     47 H18         -1.5900    -1.9650    -2.8490 ha         1 PLH       0.116500
     48 HN1         -1.8040    -0.9320     4.0940 hn         1 PLH       0.340500
     49 HN2          0.5840     1.3710    -0.8800 hn         1 PLH       0.314500
     50 HN3          2.7300     1.2450    -1.4560 hn         1 PLH       0.323500
     51 HO1         -3.1790     0.3340     5.5870 ho         1 PLH       0.442000
     52 N3           2.9790     1.1470    -2.4320 ns         1 PLH      -0.495900
@<TRIPOS>BOND
     1     1     2 1   
     2     1    19 1   
     3     1    22 2   
     4     2     3 1   
     5     2    25 1   
     6     2    26 1   
     7     3     4 1   
     8     3     8 1   
     9     3    27 1   
    10     4     5 1   
    11     4    28 1   
    12     4    29 1   
    13     5     6 1   
    14     5     7 1   
    15     5    30 1   
    16     6    31 1   
    17     6    32 1   
    18     6    33 1   
    19     7    34 1   
    20     7    35 1   
    21     7    36 1   
    22     8    20 1   
    23     8    23 2   
    24     9    10 1   
    25     9    12 1   
    26     9    20 1   
    27     9    37 1   
    28    10    24 2   
    29    10    52 1   
    30    11    38 1   
    31    11    39 1   
    32    11    40 1   
    33    11    52 1   
    34    12    13 1   
    35    12    41 1   
    36    12    42 1   
    37    13    14 ar  
    38    13    18 ar  
    39    14    15 ar  
    40    14    43 1   
    41    15    16 ar  
    42    15    44 1   
    43    16    17 ar  
    44    16    45 1   
    45    17    18 ar  
    46    17    46 1   
    47    18    47 1   
    48    19    21 1   
    49    19    48 1   
    50    20    49 1   
    51    21    51 1   
    52    50    52 1   
@<TRIPOS>SUBSTRUCTURE
     1 PLH         1 TEMP              0 ****  ****    0 ROOT
