@<TRIPOS>MOLECULE
PLH
   52    52     1     0     0
SMALL
bcc


@<TRIPOS>ATOM
      1 C1          -1.6590     0.5890     2.6190 c          1 PLH       0.672100
      2 C2          -1.0440    -0.2420     1.5140 c3         1 PLH      -0.163400
      3 C3           0.4290     0.1270     1.2850 c3         1 PLH      -0.127700
      4 C4           1.3120    -0.3750     2.4280 c3         1 PLH      -0.067400
      5 C5           2.6100     0.4040     2.6380 c3         1 PLH      -0.059700
      6 C6           3.3820    -0.1900     3.8120 c3         1 PLH      -0.088100
      7 C7           3.4900     0.4520     1.3920 c3         1 PLH      -0.088100
      8 C8           0.8030    -0.4700    -0.0610 c          1 PLH       0.667100
      9 C9           0.6390    -0.0540    -2.4800 c3         1 PLH       0.022700
     10 C10          1.8980     0.2500    -3.2910 c          1 PLH       0.656100
     11 C11          4.1240     1.2380    -3.2950 c3         1 PLH       0.095300
     12 C12         -0.5980     0.5390    -3.1720 c3         1 PLH      -0.043100
     13 C13         -1.8540     0.2250    -2.4060 ca         1 PLH      -0.087300
     14 C14         -2.5570     1.2260    -1.7430 ca         1 PLH      -0.125500
     15 C15         -3.6920     0.9270    -0.9980 ca         1 PLH      -0.128500
     16 C16         -4.1350    -0.3840    -0.9010 ca         1 PLH      -0.135000
     17 C17         -3.4400    -1.3920    -1.5600 ca         1 PLH      -0.128500
     18 C18         -2.3120    -1.0880    -2.3070 ca         1 PLH      -0.125500
     19 N1          -2.4280    -0.1240     3.4570 ns         1 PLH      -0.459400
     20 N2           0.6940     0.3840    -1.1070 ns         1 PLH      -0.582900
     21 O1          -2.9980     0.4640     4.5430 oh         1 PLH      -0.379100
     22 O2          -1.5040     1.7950     2.7080 o          1 PLH      -0.579100
     23 O3           1.1090    -1.6410    -0.1980 o          1 PLH      -0.585100
     24 O4           1.9660    -0.0900    -4.4650 o          1 PLH      -0.607100
     25 H21         -1.6330    -0.0480     0.6120 hc         1 PLH       0.075700
     26 H22         -1.1320    -1.3120     1.7180 hc         1 PLH       0.075700
     27 H3           0.4960     1.2180     1.2280 hc         1 PLH       0.077700
     28 H41          0.7390    -0.3280     3.3600 hc         1 PLH       0.055200
     29 H42          1.5330    -1.4350     2.2720 hc         1 PLH       0.055200
     30 H5           2.3390     1.4340     2.8960 hc         1 PLH       0.048700
     31 H61          4.2740     0.3960     4.0380 hc         1 PLH       0.033867
     32 H62          2.7700    -0.2250     4.7150 hc         1 PLH       0.033867
     33 H63          3.7040    -1.2100     3.5900 hc         1 PLH       0.033867
     34 H71          3.7260    -0.5510     1.0310 hc         1 PLH       0.033867
     35 H72          3.0140     1.0020     0.5790 hc         1 PLH       0.033867
     36 H73          4.4320     0.9600     1.6060 hc         1 PLH       0.033867
     37 H9           0.5460    -1.1420    -2.4760 h1         1 PLH       0.105700
     38 H111         4.7700     1.7090    -2.5590 h1         1 PLH       0.041033
     39 H112         4.6350     0.3590    -3.6880 h1         1 PLH       0.041033
     40 H113         3.9680     1.9400    -4.1150 h1         1 PLH       0.041033
     41 H121        -0.4800     1.6220    -3.2670 hc         1 PLH       0.069200
     42 H122        -0.6540     0.1390    -4.1850 hc         1 PLH       0.069200
     43 H14         -2.2160     2.2520    -1.8080 ha         1 PLH       0.134500
     44 H15         -4.2230     1.7190    -0.4860 ha         1 PLH       0.134500
     45 H16         -5.0150    -0.6210    -0.3160 ha         1 PLH       0.131000
     46 H17         -3.7790    -2.4180    -1.4910 ha         1 PLH       0.134500
     47 H18         -1.7800    -1.8840    -2.8160 ha         1 PLH       0.134500
     48 HN1         -2.4640    -1.1330     3.4460 hn         1 PLH       0.340500
     49 HN2          0.3890     1.3260    -0.9120 hn         1 PLH       0.314500
     50 HN3          2.7340     1.1580    -1.6950 hn         1 PLH       0.323500
     51 HO1         -3.8860     0.7340     4.2720 ho         1 PLH       0.403000
     52 N3           2.8820     0.8840    -2.6510 ns         1 PLH      -0.562900
@<TRIPOS>BOND
     1     1     2 1   
     2     1    19 1   
     3     1    22 2   
     4     2     3 1   
     5     2    25 1   
     6     2    26 1   
     7     3     4 1   
     8     3     8 1   
     9     3    27 1   
    10     4     5 1   
    11     4    28 1   
    12     4    29 1   
    13     5     6 1   
    14     5     7 1   
    15     5    30 1   
    16     6    31 1   
    17     6    32 1   
    18     6    33 1   
    19     7    34 1   
    20     7    35 1   
    21     7    36 1   
    22     8    20 1   
    23     8    23 2   
    24     9    10 1   
    25     9    12 1   
    26     9    20 1   
    27     9    37 1   
    28    10    24 2   
    29    10    52 1   
    30    11    38 1   
    31    11    39 1   
    32    11    40 1   
    33    11    52 1   
    34    12    13 1   
    35    12    41 1   
    36    12    42 1   
    37    13    14 ar  
    38    13    18 ar  
    39    14    15 ar  
    40    14    43 1   
    41    15    16 ar  
    42    15    44 1   
    43    16    17 ar  
    44    16    45 1   
    45    17    18 ar  
    46    17    46 1   
    47    18    47 1   
    48    19    21 1   
    49    19    48 1   
    50    20    49 1   
    51    21    51 1   
    52    50    52 1   
@<TRIPOS>SUBSTRUCTURE
     1 PLH         1 TEMP              0 ****  ****    0 ROOT
