@<TRIPOS>MOLECULE
PLJ
   20    20     1     0     0
SMALL
bcc


@<TRIPOS>ATOM
      1 CM         -39.6150     2.6700    67.3690 c3         1 PLJ       0.147700
      2 O          -43.0530     2.1100    67.8000 o          1 PLJ      -0.473000
      3 CG         -40.5800     6.0700    67.1460 c5         1 PLJ      -0.116400
      4 CB         -41.6000     5.0720    66.5910 c5         1 PLJ      -0.103400
      5 CD         -40.9580     6.1570    68.6250 c5         1 PLJ       0.140800
      6 OXT        -40.9070     2.0940    67.5370 os         1 PLJ      -0.432900
      7 C          -42.0430     2.7620    67.7300 c          1 PLJ       0.656100
      8 CA         -42.0840     4.2790    67.8450 c5         1 PLJ       0.047500
      9 N          -41.3820     4.8150    69.0120 n7         1 PLJ      -0.778200
     10 HM1        -38.9530     1.8380    67.1420 h1         1 PLJ       0.042700
     11 HM2        -39.5760     3.3730    66.5400 h1         1 PLJ       0.042700
     12 HM3        -39.2520     3.1530    68.2740 h1         1 PLJ       0.042700
     13 HG2        -39.5610     5.6920    67.0400 hc         1 PLJ       0.050200
     14 HG3        -40.6250     7.0340    66.6400 hc         1 PLJ       0.050200
     15 HB2        -42.4540     5.5940    66.1590 hc         1 PLJ       0.056200
     16 HB3        -41.1910     4.4470    65.7970 hc         1 PLJ       0.056200
     17 HD2        -40.1460     6.4960    69.2670 h1         1 PLJ       0.060200
     18 HD3        -41.7940     6.8500    68.7580 h1         1 PLJ       0.060200
     19 HA         -43.1460     4.4950    67.9750 h1         1 PLJ       0.098700
     20 H          -40.5660     4.2690    69.2550 hn         1 PLJ       0.351800
@<TRIPOS>BOND
     1     1     6 1   
     2     1    10 1   
     3     1    11 1   
     4     1    12 1   
     5     2     7 2   
     6     3     4 1   
     7     3     5 1   
     8     3    13 1   
     9     3    14 1   
    10     4     8 1   
    11     4    15 1   
    12     4    16 1   
    13     5     9 1   
    14     5    17 1   
    15     5    18 1   
    16     6     7 1   
    17     7     8 1   
    18     8     9 1   
    19     8    19 1   
    20     9    20 1   
@<TRIPOS>SUBSTRUCTURE
     1 PLJ         1 TEMP              0 ****  ****    0 ROOT
