@<TRIPOS>MOLECULE
PLJ
   20    20     1     0     0
SMALL
No Charge or Current Charge


@<TRIPOS>ATOM
      1 CM         -39.6330     2.6550    67.3470 c3         1 PLJ       0.170900
      2 O          -43.1490     2.0510    67.6780 o          1 PLJ      -0.424000
      3 CG         -40.5290     6.0410    67.1940 c5         1 PLJ      -0.116400
      4 CB         -41.6210     5.0890    66.6240 c5         1 PLJ      -0.103400
      5 CD         -40.9910     6.2000    68.6600 c5         1 PLJ       0.140800
      6 OXT        -40.8990     2.0180    67.6140 os         1 PLJ      -0.456100
      7 C          -42.1100     2.6940    67.6360 c          1 PLJ       0.607100
      8 CA         -42.0750     4.2680    67.8790 c5         1 PLJ       0.047500
      9 N          -41.2800     4.8020    69.0430 n7         1 PLJ      -0.833400
     10 HM1        -38.8390     1.8980    67.3250 h1         1 PLJ       0.042700
     11 HM2        -39.6290     3.1500    66.3700 h1         1 PLJ       0.042700
     12 HM3        -39.3590     3.3760    68.1240 h1         1 PLJ       0.042700
     13 HG2        -39.5280     5.5980    67.1350 hc         1 PLJ       0.050200
     14 HG3        -40.4900     6.9990    66.6630 hc         1 PLJ       0.050200
     15 HB2        -42.4660     5.6630    66.2240 hc         1 PLJ       0.056200
     16 HB3        -41.2550     4.4730    65.7970 hc         1 PLJ       0.056200
     17 HD2        -40.2170     6.6530    69.2970 h1         1 PLJ       0.060200
     18 HD3        -41.8960     6.8220    68.7270 h1         1 PLJ       0.060200
     19 HA         -43.1300     4.5220    68.0580 h1         1 PLJ       0.098700
     20 H          -40.3880     4.2980    69.1050 hn         1 PLJ       0.407000
@<TRIPOS>BOND
     1     1     6 1   
     2     1    10 1   
     3     1    11 1   
     4     1    12 1   
     5     2     7 2   
     6     3     4 1   
     7     3     5 1   
     8     3    13 1   
     9     3    14 1   
    10     4     8 1   
    11     4    15 1   
    12     4    16 1   
    13     5     9 1   
    14     5    17 1   
    15     5    18 1   
    16     6     7 1   
    17     7     8 1   
    18     8     9 1   
    19     8    19 1   
    20     9    20 1   
@<TRIPOS>SUBSTRUCTURE
     1 PLJ         1 TEMP              0 ****  ****    0 ROOT
