@<TRIPOS>MOLECULE
PLM
   49    48     1     0     0
SMALL
No Charge or Current Charge


@<TRIPOS>ATOM
      1 C1         -45.1670    67.0580    -5.7670 c          1 PLM       0.716000
      2 O1         -45.9520    66.4380    -6.4680 o          1 PLM      -0.743500
      3 O2         -43.9750    66.8000    -5.6960 o          1 PLM      -0.743500
      4 C2         -45.6970    68.2660    -4.9730 c3         1 PLM      -0.204400
      5 C3         -45.5970    69.5540    -5.8260 c3         1 PLM      -0.058400
      6 C4         -46.1130    70.8130    -5.0880 c3         1 PLM      -0.079400
      7 C5         -45.9410    72.1370    -5.8760 c3         1 PLM      -0.067400
      8 C6         -46.6760    72.2180    -7.2380 c3         1 PLM      -0.068400
      9 C7         -48.2140    72.0740    -7.1470 c3         1 PLM      -0.076400
     10 C8         -48.9170    72.2540    -8.5100 c3         1 PLM      -0.075400
     11 C9         -50.4540    72.1020    -8.4200 c3         1 PLM      -0.073400
     12 CA         -51.2040    72.3630    -9.7480 c3         1 PLM      -0.069400
     13 CB         -50.9050    71.3360   -10.8660 c3         1 PLM      -0.078400
     14 CC         -51.7370    71.5790   -12.1440 c3         1 PLM      -0.074400
     15 CD         -51.4380    70.5520   -13.2620 c3         1 PLM      -0.074400
     16 CE         -52.1880    70.8120   -14.5900 c3         1 PLM      -0.072400
     17 CF         -53.7250    70.6590   -14.4990 c3         1 PLM      -0.076400
     18 CG         -54.4280    70.8390   -15.8590 c3         1 PLM      -0.088100
     19 H21        -46.7630    68.1390    -4.7460 hc         1 PLM       0.012700
     20 H22        -45.0760    68.4450    -4.0860 hc         1 PLM       0.012700
     21 H31        -44.5520    69.7120    -6.1200 hc         1 PLM       0.038700
     22 H32        -46.1720    69.4100    -6.7490 hc         1 PLM       0.038700
     23 H41        -47.1680    70.6750    -4.8240 hc         1 PLM       0.024200
     24 H42        -45.5710    70.9100    -4.1400 hc         1 PLM       0.024200
     25 H51        -46.2840    72.9650    -5.2430 hc         1 PLM       0.023200
     26 H52        -44.8710    72.3060    -6.0480 hc         1 PLM       0.023200
     27 H61        -46.4420    73.1880    -7.6930 hc         1 PLM       0.033700
     28 H62        -46.2780    71.4570    -7.9190 hc         1 PLM       0.033700
     29 H71        -48.4660    71.0840    -6.7490 hc         1 PLM       0.039200
     30 H72        -48.6040    72.8160    -6.4390 hc         1 PLM       0.039200
     31 H81        -48.6760    73.2450    -8.9130 hc         1 PLM       0.034200
     32 H82        -48.5150    71.5140    -9.2120 hc         1 PLM       0.034200
     33 H91        -50.7000    71.0960    -8.0580 hc         1 PLM       0.037700
     34 H92        -50.8330    72.8060    -7.6680 hc         1 PLM       0.037700
     35 HA1        -52.2810    72.3540    -9.5410 hc         1 PLM       0.029200
     36 HA2        -50.9630    73.3720   -10.1060 hc         1 PLM       0.029200
     37 HB1        -49.8400    71.3760   -11.1260 hc         1 PLM       0.043200
     38 HB2        -51.1070    70.3250   -10.4900 hc         1 PLM       0.043200
     39 HC1        -52.8010    71.5390   -11.8840 hc         1 PLM       0.032200
     40 HC2        -51.5340    72.5890   -12.5190 hc         1 PLM       0.032200
     41 HD1        -50.3600    70.5610   -13.4690 hc         1 PLM       0.040700
     42 HD2        -51.6780    69.5430   -12.9030 hc         1 PLM       0.040700
     43 HE1        -51.9440    71.8190   -14.9510 hc         1 PLM       0.034200
     44 HE2        -51.8090    70.1100   -15.3420 hc         1 PLM       0.034200
     45 HF1        -53.9690    69.6660   -14.1010 hc         1 PLM       0.038200
     46 HF2        -54.1310    71.3960   -13.7970 hc         1 PLM       0.038200
     47 HG1        -55.5120    70.7240   -15.7460 hc         1 PLM       0.028367
     48 HG2        -54.2290    71.8370   -16.2690 hc         1 PLM       0.028367
     49 HG3        -54.0770    70.0910   -16.5800 hc         1 PLM       0.028367
@<TRIPOS>BOND
     1     1     2 1   
     2     1     3 1   
     3     1     4 1   
     4     4     5 1   
     5     4    19 1   
     6     4    20 1   
     7     5     6 1   
     8     5    21 1   
     9     5    22 1   
    10     6     7 1   
    11     6    23 1   
    12     6    24 1   
    13     7     8 1   
    14     7    25 1   
    15     7    26 1   
    16     8     9 1   
    17     8    27 1   
    18     8    28 1   
    19     9    10 1   
    20     9    29 1   
    21     9    30 1   
    22    10    11 1   
    23    10    31 1   
    24    10    32 1   
    25    11    12 1   
    26    11    33 1   
    27    11    34 1   
    28    12    13 1   
    29    12    35 1   
    30    12    36 1   
    31    13    14 1   
    32    13    37 1   
    33    13    38 1   
    34    14    15 1   
    35    14    39 1   
    36    14    40 1   
    37    15    16 1   
    38    15    41 1   
    39    15    42 1   
    40    16    17 1   
    41    16    43 1   
    42    16    44 1   
    43    17    18 1   
    44    17    45 1   
    45    17    46 1   
    46    18    47 1   
    47    18    48 1   
    48    18    49 1   
@<TRIPOS>SUBSTRUCTURE
     1 PLM         1 TEMP              0 ****  ****    0 ROOT
