@<TRIPOS>MOLECULE
PLM
   49    48     1     0     0
SMALL
bcc


@<TRIPOS>ATOM
      1 C1         -45.1620    67.0290    -5.6530 c          1 PLM       0.926600
      2 O1         -45.7070    65.9450    -5.3560 o          1 PLM      -0.848800
      3 O2         -44.1440    67.1760    -6.3620 o          1 PLM      -0.848800
      4 C2         -45.7900    68.3020    -5.0500 c3         1 PLM      -0.204400
      5 C3         -45.5840    69.5820    -5.8470 c3         1 PLM      -0.058400
      6 C4         -46.1880    70.8020    -5.1640 c3         1 PLM      -0.079400
      7 C5         -46.0000    72.1100    -5.9300 c3         1 PLM      -0.067400
      8 C6         -46.6970    72.1800    -7.2890 c3         1 PLM      -0.068400
      9 C7         -48.2130    72.0390    -7.2150 c3         1 PLM      -0.076400
     10 C8         -48.9080    72.2320    -8.5570 c3         1 PLM      -0.075400
     11 C9         -50.4210    72.0710    -8.4630 c3         1 PLM      -0.073400
     12 CA         -51.1750    72.3390    -9.7620 c3         1 PLM      -0.069400
     13 CB         -50.8670    71.3570   -10.8870 c3         1 PLM      -0.078400
     14 CC         -51.7060    71.6050   -12.1350 c3         1 PLM      -0.074400
     15 CD         -51.3970    70.6260   -13.2620 c3         1 PLM      -0.074400
     16 CE         -52.1780    70.8770   -14.5490 c3         1 PLM      -0.072400
     17 CF         -53.6820    70.6510   -14.4300 c3         1 PLM      -0.076400
     18 CG         -54.4110    70.8520   -15.7520 c3         1 PLM      -0.088100
     19 H21        -46.8590    68.1360    -4.8900 hc         1 PLM       0.012700
     20 H22        -45.3650    68.4360    -4.0460 hc         1 PLM       0.012700
     21 H31        -44.5150    69.7500    -6.0040 hc         1 PLM       0.038700
     22 H32        -46.0180    69.4580    -6.8450 hc         1 PLM       0.038700
     23 H41        -47.2540    70.6300    -4.9760 hc         1 PLM       0.024200
     24 H42        -45.7330    70.9120    -4.1740 hc         1 PLM       0.024200
     25 H51        -46.3630    72.9380    -5.3120 hc         1 PLM       0.023200
     26 H52        -44.9290    72.2860    -6.0700 hc         1 PLM       0.023200
     27 H61        -46.4540    73.1420    -7.7520 hc         1 PLM       0.033700
     28 H62        -46.2920    71.4170    -7.9620 hc         1 PLM       0.033700
     29 H71        -48.4760    71.0530    -6.8180 hc         1 PLM       0.039200
     30 H72        -48.6070    72.7660    -6.4960 hc         1 PLM       0.039200
     31 H81        -48.6740    73.2280    -8.9500 hc         1 PLM       0.034200
     32 H82        -48.4960    71.5180    -9.2780 hc         1 PLM       0.034200
     33 H91        -50.6550    71.0600    -8.1090 hc         1 PLM       0.037700
     34 H92        -50.7970    72.7520    -7.6920 hc         1 PLM       0.037700
     35 HA1        -52.2500    72.3120    -9.5580 hc         1 PLM       0.029200
     36 HA2        -50.9600    73.3580   -10.1040 hc         1 PLM       0.029200
     37 HB1        -49.8070    71.4080   -11.1520 hc         1 PLM       0.043200
     38 HB2        -51.0410    70.3350   -10.5300 hc         1 PLM       0.043200
     39 HC1        -52.7660    71.5510   -11.8690 hc         1 PLM       0.032200
     40 HC2        -51.5350    72.6270   -12.4910 hc         1 PLM       0.032200
     41 HD1        -50.3260    70.6740   -13.4840 hc         1 PLM       0.040700
     42 HD2        -51.5870    69.6040   -12.9160 hc         1 PLM       0.040700
     43 HE1        -51.9930    71.9010   -14.8930 hc         1 PLM       0.034200
     44 HE2        -51.7870    70.2220   -15.3350 hc         1 PLM       0.034200
     45 HF1        -53.8630    69.6360   -14.0620 hc         1 PLM       0.038200
     46 HF2        -54.1050    71.3240   -13.6810 hc         1 PLM       0.038200
     47 HG1        -55.4840    70.6860   -15.6470 hc         1 PLM       0.028367
     48 HG2        -54.2700    71.8660   -16.1300 hc         1 PLM       0.028367
     49 HG3        -54.0430    70.1640   -16.5150 hc         1 PLM       0.028367
@<TRIPOS>BOND
     1     1     2 1   
     2     1     3 1   
     3     1     4 1   
     4     4     5 1   
     5     4    19 1   
     6     4    20 1   
     7     5     6 1   
     8     5    21 1   
     9     5    22 1   
    10     6     7 1   
    11     6    23 1   
    12     6    24 1   
    13     7     8 1   
    14     7    25 1   
    15     7    26 1   
    16     8     9 1   
    17     8    27 1   
    18     8    28 1   
    19     9    10 1   
    20     9    29 1   
    21     9    30 1   
    22    10    11 1   
    23    10    31 1   
    24    10    32 1   
    25    11    12 1   
    26    11    33 1   
    27    11    34 1   
    28    12    13 1   
    29    12    35 1   
    30    12    36 1   
    31    13    14 1   
    32    13    37 1   
    33    13    38 1   
    34    14    15 1   
    35    14    39 1   
    36    14    40 1   
    37    15    16 1   
    38    15    41 1   
    39    15    42 1   
    40    16    17 1   
    41    16    43 1   
    42    16    44 1   
    43    17    18 1   
    44    17    45 1   
    45    17    46 1   
    46    18    47 1   
    47    18    48 1   
    48    18    49 1   
@<TRIPOS>SUBSTRUCTURE
     1 PLM         1 TEMP              0 ****  ****    0 ROOT
