@<TRIPOS>MOLECULE
PLO
   55    58     1     0     0
SMALL
bcc


@<TRIPOS>ATOM
      1 C1           1.5240    -0.6100    -2.7950 c6         1 PLO      -0.067400
      2 C2           1.5840    -0.3920    -4.3020 c6         1 PLO      -0.072400
      3 C3           0.2300    -0.6550    -4.9310 c6         1 PLO       0.150100
      4 O3           0.3340    -0.4470    -6.3250 oh         1 PLO      -0.597800
      5 C4          -0.8170     0.2550    -4.2940 c6         1 PLO      -0.073200
      6 C5          -0.8540     0.1190    -2.7940 c2         1 PLO      -0.107400
      7 C6          -2.0090    -0.0880    -2.1630 c2         1 PLO      -0.167200
      8 C7          -2.1700    -0.1890    -0.6820 c6         1 PLO      -0.037200
      9 C8          -0.9280     0.2520     0.0860 c6         1 PLO      -0.043700
     10 C9           0.3340    -0.2770    -0.6110 c6         1 PLO      -0.047700
     11 C10          0.4710     0.2500    -2.0620 c6         1 PLO       0.003200
     12 C11          1.5920    -0.0380     0.2310 c6         1 PLO      -0.070400
     13 C12          1.4770    -0.5450     1.6690 c6         1 PLO      -0.064400
     14 C13          0.2580     0.0540     2.3640 c5         1 PLO      -0.032000
     15 C14         -0.9770    -0.2730     1.5120 c5         1 PLO      -0.063700
     16 C15         -2.1530     0.1150     2.4020 c5         1 PLO      -0.071400
     17 C16         -1.6760    -0.2620     3.8210 c5         1 PLO      -0.067400
     18 C17         -0.1820    -0.6270     3.6930 c5         1 PLO      -0.168700
     19 C18          0.4440     1.5590     2.5820 c3         1 PLO      -0.084100
     20 C19          0.8950     1.7280    -2.0970 c3         1 PLO      -0.080100
     21 C20          0.6630    -0.2790     4.8950 c          1 PLO       0.582100
     22 C21          1.9090    -1.0990     5.0850 c3         1 PLO      -0.202100
     23 O20          0.3590     0.6000     5.6730 o          1 PLO      -0.522100
     24 H11          1.3050    -1.6660    -2.6030 hc         1 PLO       0.041700
     25 H12          2.5120    -0.4200    -2.3720 hc         1 PLO       0.041700
     26 H21          2.3350    -1.0590    -4.7330 hc         1 PLO       0.053200
     27 H22          1.9040     0.6300    -4.5320 hc         1 PLO       0.053200
     28 H3          -0.0500    -1.6990    -4.7210 h1         1 PLO       0.029700
     29 HO3         -0.5080    -0.6840    -6.7270 ho         1 PLO       0.402000
     30 H41         -1.8070     0.0360    -4.7050 hc         1 PLO       0.050200
     31 H42         -0.5810     1.2880    -4.5790 hc         1 PLO       0.050200
     32 H6          -2.9140    -0.1900    -2.7570 ha         1 PLO       0.119000
     33 H71         -2.4180    -1.2260    -0.4180 hc         1 PLO       0.047200
     34 H72         -3.0370     0.4000    -0.3680 hc         1 PLO       0.047200
     35 H8          -0.8990     1.3480     0.0950 hc         1 PLO       0.056700
     36 H9           0.2000    -1.3670    -0.6920 hc         1 PLO       0.045700
     37 H111         1.8230     1.0290     0.2520 hc         1 PLO       0.042200
     38 H112         2.4520    -0.5190    -0.2420 hc         1 PLO       0.042200
     39 H121         2.4020    -0.2990     2.2000 hc         1 PLO       0.039200
     40 H122         1.3910    -1.6380     1.6760 hc         1 PLO       0.039200
     41 H14         -0.9940    -1.3710     1.4240 hc         1 PLO       0.042700
     42 H151        -3.0730    -0.4010     2.1230 hc         1 PLO       0.045200
     43 H152        -2.3580     1.1860     2.3270 hc         1 PLO       0.045200
     44 H161        -2.2360    -1.1070     4.2230 hc         1 PLO       0.053700
     45 H162        -1.8160     0.5640     4.5180 hc         1 PLO       0.053700
     46 H17         -0.0820    -1.7070     3.5300 hc         1 PLO       0.057700
     47 H181         0.4740     2.1150     1.6450 hc         1 PLO       0.039367
     48 H182        -0.3560     1.9940     3.1820 hc         1 PLO       0.039367
     49 H183         1.3850     1.7620     3.0980 hc         1 PLO       0.039367
     50 H191         0.8420     2.1320    -3.1070 hc         1 PLO       0.035367
     51 H192         0.2460     2.3430    -1.4720 hc         1 PLO       0.035367
     52 H193         1.9210     1.8640    -1.7540 hc         1 PLO       0.035367
     53 H211         2.5160    -0.7260     5.9080 hc         1 PLO       0.060033
     54 H212         1.6290    -2.1350     5.2900 hc         1 PLO       0.060033
     55 H213         2.5080    -1.1170     4.1740 hc         1 PLO       0.060033
@<TRIPOS>BOND
     1     1     2 1   
     2     1    11 1   
     3     1    24 1   
     4     1    25 1   
     5     2     3 1   
     6     2    26 1   
     7     2    27 1   
     8     3     4 1   
     9     3     5 1   
    10     3    28 1   
    11     4    29 1   
    12     5     6 1   
    13     5    30 1   
    14     5    31 1   
    15     6     7 2   
    16     6    11 1   
    17     7     8 1   
    18     7    32 1   
    19     8     9 1   
    20     8    33 1   
    21     8    34 1   
    22     9    10 1   
    23     9    15 1   
    24     9    35 1   
    25    10    11 1   
    26    10    12 1   
    27    10    36 1   
    28    11    20 1   
    29    12    13 1   
    30    12    37 1   
    31    12    38 1   
    32    13    14 1   
    33    13    39 1   
    34    13    40 1   
    35    14    15 1   
    36    14    18 1   
    37    14    19 1   
    38    15    16 1   
    39    15    41 1   
    40    16    17 1   
    41    16    42 1   
    42    16    43 1   
    43    17    18 1   
    44    17    44 1   
    45    17    45 1   
    46    18    21 1   
    47    18    46 1   
    48    19    47 1   
    49    19    48 1   
    50    19    49 1   
    51    20    50 1   
    52    20    51 1   
    53    20    52 1   
    54    21    22 1   
    55    21    23 2   
    56    22    53 1   
    57    22    54 1   
    58    22    55 1   
@<TRIPOS>SUBSTRUCTURE
     1 PLO         1 TEMP              0 ****  ****    0 ROOT
