@<TRIPOS>MOLECULE
PLO
   55    58     1     0     0
SMALL
No Charge or Current Charge


@<TRIPOS>ATOM
      1 C1           1.5980    -0.5410    -2.8750 c6         1 PLO      -0.067400
      2 C2           1.6130    -0.3290    -4.4080 c6         1 PLO      -0.072400
      3 C3           0.2420    -0.6790    -5.0220 c6         1 PLO       0.173300
      4 O3           0.2730    -0.4720    -6.4370 oh         1 PLO      -0.660000
      5 C4          -0.8640     0.1860    -4.3780 c6         1 PLO      -0.073200
      6 C5          -0.8810     0.0730    -2.8490 c2         1 PLO      -0.107400
      7 C6          -2.0390    -0.1450    -2.2010 c2         1 PLO      -0.217200
      8 C7          -2.1810    -0.2550    -0.6940 c6         1 PLO      -0.037200
      9 C8          -0.9260     0.2270     0.0800 c6         1 PLO      -0.043700
     10 C9           0.3790    -0.2710    -0.6340 c6         1 PLO      -0.047700
     11 C10          0.4750     0.2620    -2.1260 c6         1 PLO       0.003200
     12 C11          1.6670     0.0140     0.2270 c6         1 PLO      -0.070400
     13 C12          1.5430    -0.4820     1.6960 c6         1 PLO      -0.064400
     14 C13          0.2830     0.1060     2.3930 c5         1 PLO      -0.032000
     15 C14         -0.9630    -0.2910     1.5490 c5         1 PLO      -0.063700
     16 C15         -2.1410     0.1580     2.4610 c5         1 PLO      -0.071400
     17 C16         -1.6400    -0.2090     3.9010 c5         1 PLO      -0.067400
     18 C17         -0.1410    -0.6450     3.7050 c5         1 PLO      -0.168700
     19 C18          0.4870     1.6520     2.5840 c3         1 PLO      -0.084100
     20 C19          0.7960     1.7980    -2.1740 c3         1 PLO      -0.080100
     21 C20          0.7510    -0.2790     4.9280 c          1 PLO       0.582100
     22 C21          1.7430    -1.3550     5.3700 c3         1 PLO      -0.202100
     23 O20          0.7110     0.7890     5.5280 o          1 PLO      -0.522100
     24 H11          1.4720    -1.6160    -2.6810 hc         1 PLO       0.041700
     25 H12          2.5870    -0.2770    -2.4790 hc         1 PLO       0.041700
     26 H21          2.3900    -0.9640    -4.8550 hc         1 PLO       0.053200
     27 H22          1.8860     0.7070    -4.6500 hc         1 PLO       0.053200
     28 H3           0.0260    -1.7360    -4.8060 h1         1 PLO       0.029700
     29 HO3         -0.5980    -0.7690    -6.7830 ho         1 PLO       0.441000
     30 H41         -1.8400    -0.1050    -4.7910 hc         1 PLO       0.050200
     31 H42         -0.7220     1.2360    -4.6640 hc         1 PLO       0.050200
     32 H6          -2.9700    -0.2570    -2.7600 ha         1 PLO       0.169000
     33 H71         -2.4010    -1.3030    -0.4490 hc         1 PLO       0.047200
     34 H72         -3.0550     0.3250    -0.3680 hc         1 PLO       0.047200
     35 H8          -0.9390     1.3230     0.0950 hc         1 PLO       0.056700
     36 H9           0.2890    -1.3650    -0.6920 hc         1 PLO       0.045700
     37 H111         1.9060     1.0830     0.2340 hc         1 PLO       0.042200
     38 H112         2.5370    -0.4810    -0.2230 hc         1 PLO       0.042200
     39 H121         2.4500    -0.2200     2.2590 hc         1 PLO       0.039200
     40 H122         1.4920    -1.5800     1.6960 hc         1 PLO       0.039200
     41 H14         -1.0030    -1.3840     1.4400 hc         1 PLO       0.042700
     42 H151        -3.0730    -0.3600     2.2090 hc         1 PLO       0.045200
     43 H152        -2.3420     1.2310     2.3670 hc         1 PLO       0.045200
     44 H161        -2.2310    -1.0200     4.3440 hc         1 PLO       0.053700
     45 H162        -1.7460     0.6520     4.5710 hc         1 PLO       0.053700
     46 H17         -0.0600    -1.7270     3.5430 hc         1 PLO       0.057700
     47 H181         0.5100     2.1950     1.6340 hc         1 PLO       0.039367
     48 H182        -0.3040     2.1130     3.1860 hc         1 PLO       0.039367
     49 H183         1.4350     1.8650     3.0920 hc         1 PLO       0.039367
     50 H191         0.7850     2.1900    -3.1960 hc         1 PLO       0.035367
     51 H192         0.0670     2.3880    -1.6080 hc         1 PLO       0.035367
     52 H193         1.7910     2.0240    -1.7750 hc         1 PLO       0.035367
     53 H211         2.3760    -1.0330     6.2050 hc         1 PLO       0.060033
     54 H212         1.1870    -2.2670     5.6150 hc         1 PLO       0.060033
     55 H213         2.3370    -1.6710     4.5050 hc         1 PLO       0.060033
@<TRIPOS>BOND
     1     1     2 1   
     2     1    11 1   
     3     1    24 1   
     4     1    25 1   
     5     2     3 1   
     6     2    26 1   
     7     2    27 1   
     8     3     4 1   
     9     3     5 1   
    10     3    28 1   
    11     4    29 1   
    12     5     6 1   
    13     5    30 1   
    14     5    31 1   
    15     6     7 2   
    16     6    11 1   
    17     7     8 1   
    18     7    32 1   
    19     8     9 1   
    20     8    33 1   
    21     8    34 1   
    22     9    10 1   
    23     9    15 1   
    24     9    35 1   
    25    10    11 1   
    26    10    12 1   
    27    10    36 1   
    28    11    20 1   
    29    12    13 1   
    30    12    37 1   
    31    12    38 1   
    32    13    14 1   
    33    13    39 1   
    34    13    40 1   
    35    14    15 1   
    36    14    18 1   
    37    14    19 1   
    38    15    16 1   
    39    15    41 1   
    40    16    17 1   
    41    16    42 1   
    42    16    43 1   
    43    17    18 1   
    44    17    44 1   
    45    17    45 1   
    46    18    21 1   
    47    18    46 1   
    48    19    47 1   
    49    19    48 1   
    50    19    49 1   
    51    20    50 1   
    52    20    51 1   
    53    20    52 1   
    54    21    22 1   
    55    21    23 2   
    56    22    53 1   
    57    22    54 1   
    58    22    55 1   
@<TRIPOS>SUBSTRUCTURE
     1 PLO         1 TEMP              0 ****  ****    0 ROOT
