@<TRIPOS>MOLECULE
PLQ
   12    12     1     0     0
SMALL
No Charge or Current Charge


@<TRIPOS>ATOM
      1 O5          -2.7030    -0.0350     0.0320 o          1 PLQ      -0.484600
      2 C5          -1.4810    -0.0220     0.0290 c          1 PLQ       0.543500
      3 C6          -0.7000     1.2300     0.0460 cc         1 PLQ      -0.236950
      4 C4          -0.6740    -1.2580     0.0090 cc         1 PLQ      -0.236950
      5 C3           0.7150    -1.2450     0.0050 cd         1 PLQ      -0.236950
      6 C2           1.4990     0.0100     0.0220 c          1 PLQ       0.543500
      7 O2           2.7210     0.0230     0.0190 o          1 PLQ      -0.484600
      8 C1           0.6890     1.2470     0.0430 cd         1 PLQ      -0.236950
      9 H6          -1.2880     2.1420     0.0610 ha         1 PLQ       0.208000
     10 H4          -1.2420    -2.1820    -0.0040 ha         1 PLQ       0.208000
     11 H3           1.3070    -2.1540    -0.0100 ha         1 PLQ       0.208000
     12 H1           1.2610     2.1690     0.0550 ha         1 PLQ       0.208000
@<TRIPOS>BOND
     1     1     2 2   
     2     2     3 1   
     3     2     4 1   
     4     3     8 2   
     5     3     9 1   
     6     4     5 2   
     7     4    10 1   
     8     5     6 1   
     9     5    11 1   
    10     6     7 2   
    11     6     8 1   
    12     8    12 1   
@<TRIPOS>SUBSTRUCTURE
     1 PLQ         1 TEMP              0 ****  ****    0 ROOT
