@<TRIPOS>MOLECULE
PLQ
   12    12     1     0     0
SMALL
abcg2


@<TRIPOS>ATOM
      1 O5          -2.6390    -0.0350     0.0300 o          1 PLQ      -0.484600
      2 C5          -1.4260    -0.0220     0.0290 c          1 PLQ       0.543500
      3 C6          -0.6710     1.2490     0.0460 cc         1 PLQ      -0.236950
      4 C4          -0.6440    -1.2760     0.0090 cc         1 PLQ      -0.236950
      5 C3           0.6890    -1.2620     0.0050 cd         1 PLQ      -0.236950
      6 C2           1.4430     0.0090     0.0220 c          1 PLQ       0.543500
      7 O2           2.6570     0.0220     0.0190 o          1 PLQ      -0.484600
      8 C1           0.6620     1.2630     0.0430 cd         1 PLQ      -0.236950
      9 H6          -1.2480     2.1660     0.0620 ha         1 PLQ       0.208000
     10 H4          -1.2020    -2.2040    -0.0040 ha         1 PLQ       0.208000
     11 H3           1.2650    -2.1780    -0.0100 ha         1 PLQ       0.208000
     12 H1           1.2190     2.1920     0.0550 ha         1 PLQ       0.208000
@<TRIPOS>BOND
     1     1     2 2   
     2     2     3 1   
     3     2     4 1   
     4     3     8 2   
     5     3     9 1   
     6     4     5 2   
     7     4    10 1   
     8     5     6 1   
     9     5    11 1   
    10     6     7 2   
    11     6     8 1   
    12     8    12 1   
@<TRIPOS>SUBSTRUCTURE
     1 PLQ         1 TEMP              0 ****  ****    0 ROOT
