@<TRIPOS>MOLECULE
PLU
   22    21     1     0     0
SMALL
No Charge or Current Charge


@<TRIPOS>ATOM
      1 CA          -0.5540     0.2840     0.0050 c3         1 PLU      -0.147500
      2 CB           0.2200    -0.4290     1.1570 c3         1 PLU      -0.077400
      3 CG          -0.1420    -0.0070     2.6160 c3         1 PLU      -0.068700
      4 CD1          0.6100    -0.8850     3.6430 c3         1 PLU      -0.074100
      5 CD2          0.1170     1.4950     2.8920 c3         1 PLU      -0.074100
      6 N           -2.0450     0.0770     0.1970 n8         1 PLU      -0.958200
      7 P            0.2970    -0.0710    -1.6910 p5         1 PLU       1.299500
      8 O1           0.2190    -1.5340    -1.9820 o          1 PLU      -0.931833
      9 O2          -0.4110     0.6890    -2.7660 o          1 PLU      -0.931833
     10 O3           1.7260     0.3610    -1.6380 o          1 PLU      -0.931833
     11 HA          -0.3810     1.3620     0.1190 h1         1 PLU       0.025700
     12 HB1          1.2940    -0.2560     1.0160 hc         1 PLU       0.048200
     13 HB2          0.0760    -1.5110     1.0540 hc         1 PLU       0.048200
     14 HG          -1.2110    -0.1900     2.7750 hc         1 PLU       0.018700
     15 HD11         0.3140    -0.6240     4.6670 hc         1 PLU       0.011200
     16 HD12         0.3820    -1.9460     3.4880 hc         1 PLU       0.011200
     17 HD13         1.6950    -0.7490     3.5540 hc         1 PLU       0.011200
     18 HD21         1.1670     1.7510     2.7050 hc         1 PLU       0.011200
     19 HD22        -0.5130     2.1300     2.2590 hc         1 PLU       0.011200
     20 HD23        -0.1130     1.7400     3.9360 hc         1 PLU       0.011200
     21 HN1         -2.2770    -0.9010    -0.0080 hn         1 PLU       0.344500
     22 HN2         -2.2710     0.1880     1.1910 hn         1 PLU       0.344500
@<TRIPOS>BOND
     1     1     2 1   
     2     1     6 1   
     3     1     7 1   
     4     1    11 1   
     5     2     3 1   
     6     2    12 1   
     7     2    13 1   
     8     3     4 1   
     9     3     5 1   
    10     3    14 1   
    11     4    15 1   
    12     4    16 1   
    13     4    17 1   
    14     5    18 1   
    15     5    19 1   
    16     5    20 1   
    17     6    21 1   
    18     6    22 1   
    19     7     8 1   
    20     7     9 1   
    21     7    10 1   
@<TRIPOS>SUBSTRUCTURE
     1 PLU         1 TEMP              0 ****  ****    0 ROOT
