@<TRIPOS>MOLECULE
PLU
   22    21     1     0     0
SMALL
bcc


@<TRIPOS>ATOM
      1 CA          -0.4790     0.3490     0.0490 c3         1 PLU       0.010300
      2 CB           0.2790    -0.3610     1.1730 c3         1 PLU      -0.077400
      3 CG          -0.1370    -0.0160     2.6060 c3         1 PLU      -0.068700
      4 CD1          0.6460    -0.8680     3.6000 c3         1 PLU      -0.074100
      5 CD2          0.0500     1.4660     2.9130 c3         1 PLU      -0.074100
      6 N           -1.9220     0.1030     0.0660 n8         1 PLU      -0.847800
      7 P            0.2010    -0.1400    -1.6240 p5         1 PLU       1.141700
      8 O1          -0.2260    -1.6100    -1.7850 o          1 PLU      -0.931833
      9 O2          -0.4500     0.8020    -2.6450 o          1 PLU      -0.931833
     10 O3           1.7220     0.0510    -1.5100 o          1 PLU      -0.931833
     11 HA          -0.3260     1.4310     0.1600 h1         1 PLU       0.025700
     12 HB1          1.3460    -0.1460     1.0630 hc         1 PLU       0.048200
     13 HB2          0.1720    -1.4420     1.0250 hc         1 PLU       0.048200
     14 HG          -1.2000    -0.2600     2.7340 hc         1 PLU       0.018700
     15 HD11         0.3620    -0.6500     4.6310 hc         1 PLU       0.011200
     16 HD12         0.4790    -1.9340     3.4290 hc         1 PLU       0.011200
     17 HD13         1.7200    -0.6850     3.5070 hc         1 PLU       0.011200
     18 HD21         1.0920     1.7630     2.7630 hc         1 PLU       0.011200
     19 HD22        -0.5660     2.1000     2.2740 hc         1 PLU       0.011200
     20 HD23        -0.2120     1.6940     3.9490 hc         1 PLU       0.011200
     21 HN1         -2.0670    -0.8650    -0.1970 hn         1 PLU       0.289300
     22 HN2         -2.2840     0.1890     1.0090 hn         1 PLU       0.289300
@<TRIPOS>BOND
     1     1     2 1   
     2     1     6 1   
     3     1     7 1   
     4     1    11 1   
     5     2     3 1   
     6     2    12 1   
     7     2    13 1   
     8     3     4 1   
     9     3     5 1   
    10     3    14 1   
    11     4    15 1   
    12     4    16 1   
    13     4    17 1   
    14     5    18 1   
    15     5    19 1   
    16     5    20 1   
    17     6    21 1   
    18     6    22 1   
    19     7     8 1   
    20     7     9 1   
    21     7    10 1   
@<TRIPOS>SUBSTRUCTURE
     1 PLU         1 TEMP              0 ****  ****    0 ROOT
