@<TRIPOS>MOLECULE
PLW
   33    33     1     0     0
SMALL
abcg2


@<TRIPOS>ATOM
      1 O           -1.8850    -0.2620     1.8230 o          1 PLW      -0.706000
      2 C           -2.1540     0.7690     1.1830 c          1 PLW       0.723000
      3 C1          -1.6640     0.8530    -0.2910 c3         1 PLW      -0.077700
      4 C2          -2.7910     1.1990    -1.2530 c3         1 PLW      -0.068100
      5 N           -0.9770    -0.3650    -0.6930 na         1 PLW       0.203800
      6 C4           0.2640    -0.7590    -0.3540 cc         1 PLW      -0.220300
      7 C3           0.3680    -2.0070    -0.9230 cd         1 PLW       0.153900
      8 N2          -0.7900    -2.2920    -1.5470 nd         1 PLW      -0.402000
      9 N1          -1.5980    -1.2970    -1.3990 nc         1 PLW      -0.218800
     10 C5           1.2270    -0.0070     0.5210 c3         1 PLW       0.246800
     11 N3           1.3690    -0.6370     1.8270 n8         1 PLW      -1.001200
     12 C6           2.5880     0.1650    -0.1780 c3         1 PLW      -0.051700
     13 C7           2.4140     0.8930    -1.5080 c3         1 PLW      -0.088100
     14 C8           3.5790     0.8940     0.7320 c3         1 PLW      -0.071400
     15 C9           4.9800     1.0190     0.1460 c3         1 PLW      -0.086100
     16 OXT         -2.7670     1.7740     1.5770 o          1 PLW      -0.706000
     17 H1          -0.9260     1.6570    -0.3460 h1         1 PLW       0.044700
     18 H21C        -3.5940     0.4640    -1.2300 hc         1 PLW       0.035700
     19 H22C        -3.2040     2.1620    -0.9660 hc         1 PLW       0.035700
     20 H23C        -2.4280     1.2770    -2.2770 hc         1 PLW       0.035700
     21 H3           1.2000    -2.6930    -0.9110 h4         1 PLW       0.021100
     22 H5           0.8350     1.0000     0.6970 h1         1 PLW       0.076700
     23 H31N         0.4440    -0.7330     2.2320 hn         1 PLW       0.412500
     24 H32N         1.7220    -1.5800     1.7110 hn         1 PLW       0.412500
     25 H6           2.9910    -0.8360    -0.3850 hc         1 PLW       0.038700
     26 H71C         3.3570     0.9590    -2.0510 hc         1 PLW       0.030700
     27 H72C         1.7050     0.3880    -2.1640 hc         1 PLW       0.030700
     28 H73C         2.0540     1.9130    -1.3490 hc         1 PLW       0.030700
     29 H81C         3.1840     1.8910     0.9590 hc         1 PLW       0.049700
     30 H82C         3.6370     0.3680     1.6850 hc         1 PLW       0.049700
     31 H91C         5.3740     0.0430    -0.1460 hc         1 PLW       0.022033
     32 H92C         5.0080     1.6620    -0.7340 hc         1 PLW       0.022033
     33 H93C         5.6670     1.4430     0.8800 hc         1 PLW       0.022033
@<TRIPOS>BOND
     1     1     2 1   
     2     2     3 1   
     3     2    16 1   
     4     3     4 1   
     5     3     5 1   
     6     3    17 1   
     7     4    18 1   
     8     4    19 1   
     9     4    20 1   
    10     5     6 1   
    11     5     9 1   
    12     6     7 2   
    13     6    10 1   
    14     7     8 1   
    15     7    21 1   
    16     8     9 2   
    17    10    11 1   
    18    10    12 1   
    19    10    22 1   
    20    11    23 1   
    21    11    24 1   
    22    12    13 1   
    23    12    14 1   
    24    12    25 1   
    25    13    26 1   
    26    13    27 1   
    27    13    28 1   
    28    14    15 1   
    29    14    29 1   
    30    14    30 1   
    31    15    31 1   
    32    15    32 1   
    33    15    33 1   
@<TRIPOS>SUBSTRUCTURE
     1 PLW         1 TEMP              0 ****  ****    0 ROOT
