@<TRIPOS>MOLECULE
PLW
   33    33     1     0     0
SMALL
No Charge or Current Charge


@<TRIPOS>ATOM
      1 O           -3.8100     0.7190     0.5870 o          1 PLW      -0.706000
      2 C           -2.6290     0.7770     0.9030 c          1 PLW       0.723000
      3 C1          -1.5510     0.7890    -0.2000 c3         1 PLW      -0.077700
      4 C2          -2.0280     1.4110    -1.5400 c3         1 PLW      -0.068100
      5 N           -0.9840    -0.5650    -0.3600 na         1 PLW       0.203800
      6 C4           0.2530    -1.0290     0.0410 cc         1 PLW      -0.220300
      7 C3           0.2560    -2.3260    -0.3940 cd         1 PLW       0.153900
      8 N2          -0.9440    -2.6110    -1.0080 nd         1 PLW      -0.402000
      9 N1          -1.6970    -1.5470    -0.9880 nc         1 PLW      -0.218800
     10 C5           1.3230    -0.2490     0.7590 c3         1 PLW       0.246800
     11 N3           1.8210    -1.0860     1.8610 n8         1 PLW      -1.001200
     12 C6           2.4810     0.2270    -0.1790 c3         1 PLW      -0.051700
     13 C7           1.9370     1.0080    -1.4070 c3         1 PLW      -0.088100
     14 C8           3.5540     1.0570     0.5930 c3         1 PLW      -0.071400
     15 C9           4.8030     1.4450    -0.2300 c3         1 PLW      -0.086100
     16 OXT         -2.2540     0.8870     2.0620 o          1 PLW      -0.706000
     17 H1          -0.7550     1.4450     0.1660 h1         1 PLW       0.044700
     18 H21C        -2.8450     0.8310    -1.9840 hc         1 PLW       0.035700
     19 H22C        -2.3830     2.4360    -1.3800 hc         1 PLW       0.035700
     20 H23C        -1.2030     1.4480    -2.2610 hc         1 PLW       0.035700
     21 H3           1.0420    -3.0660    -0.3010 h4         1 PLW       0.021100
     22 H5           0.8720     0.6450     1.2140 h1         1 PLW       0.076700
     23 H31N         1.0170    -1.3890     2.4220 hn         1 PLW       0.412500
     24 H32N         2.1770    -1.9620     1.4660 hn         1 PLW       0.412500
     25 H6           2.9770    -0.6720    -0.5670 hc         1 PLW       0.038700
     26 H71C         2.7430     1.2770    -2.0990 hc         1 PLW       0.030700
     27 H72C         1.2240     0.4040    -1.9790 hc         1 PLW       0.030700
     28 H73C         1.4330     1.9300    -1.0920 hc         1 PLW       0.030700
     29 H81C         3.0930     1.9700     0.9910 hc         1 PLW       0.049700
     30 H82C         3.9040     0.4860     1.4610 hc         1 PLW       0.049700
     31 H91C         5.2490     0.5610    -0.7010 hc         1 PLW       0.022033
     32 H92C         4.5570     2.1730    -1.0110 hc         1 PLW       0.022033
     33 H93C         5.5580     1.9010     0.4220 hc         1 PLW       0.022033
@<TRIPOS>BOND
     1     1     2 1   
     2     2     3 1   
     3     2    16 1   
     4     3     4 1   
     5     3     5 1   
     6     3    17 1   
     7     4    18 1   
     8     4    19 1   
     9     4    20 1   
    10     5     6 1   
    11     5     9 1   
    12     6     7 2   
    13     6    10 1   
    14     7     8 1   
    15     7    21 1   
    16     8     9 2   
    17    10    11 1   
    18    10    12 1   
    19    10    22 1   
    20    11    23 1   
    21    11    24 1   
    22    12    13 1   
    23    12    14 1   
    24    12    25 1   
    25    13    26 1   
    26    13    27 1   
    27    13    28 1   
    28    14    15 1   
    29    14    29 1   
    30    14    30 1   
    31    15    31 1   
    32    15    32 1   
    33    15    33 1   
@<TRIPOS>SUBSTRUCTURE
     1 PLW         1 TEMP              0 ****  ****    0 ROOT
