@<TRIPOS>MOLECULE
PLY
   49    48     1     0     0
SMALL
No Charge or Current Charge


@<TRIPOS>ATOM
      1 C1          -9.0460    -0.3170    -0.2020 c          1 PLY       0.574900
      2 O2          -9.5590    -0.8230     0.7900 o          1 PLY      -0.513100
      3 C2          -7.7780     0.5400    -0.1450 c3         1 PLY      -0.204400
      4 C3          -6.5000    -0.3310    -0.1520 c3         1 PLY      -0.067400
      5 C4          -5.2020     0.5040    -0.1160 c3         1 PLY      -0.074400
      6 C5          -3.9240    -0.3630    -0.1220 c3         1 PLY      -0.074400
      7 C6          -2.6260     0.4720    -0.0850 c3         1 PLY      -0.074400
      8 C7          -1.3480    -0.3950    -0.0910 c3         1 PLY      -0.074400
      9 C8          -0.0500     0.4410    -0.0540 c3         1 PLY      -0.074400
     10 C9           1.2280    -0.4270    -0.0610 c3         1 PLY      -0.074400
     11 CA           2.5260     0.4090    -0.0240 c3         1 PLY      -0.074400
     12 CB           3.8040    -0.4580    -0.0300 c3         1 PLY      -0.074400
     13 CC           5.1020     0.3780     0.0060 c3         1 PLY      -0.074400
     14 CD           6.3800    -0.4900    -0.0000 c3         1 PLY      -0.074400
     15 CE           7.6780     0.3460     0.0360 c3         1 PLY      -0.075400
     16 CF           8.9560    -0.5210     0.0300 c3         1 PLY      -0.075400
     17 CG          10.2510     0.3130     0.0660 c3         1 PLY      -0.088100
     18 H11         -9.4740    -0.4750    -1.2160 h4         1 PLY      -0.021800
     19 H21         -7.7940     1.1500     0.7670 hc         1 PLY       0.067200
     20 H22         -7.7520     1.1760    -1.0380 hc         1 PLY       0.067200
     21 H31         -6.4970    -0.9620    -1.0510 hc         1 PLY       0.042700
     22 H32         -6.5180    -1.0070     0.7130 hc         1 PLY       0.042700
     23 H41         -5.2050     1.1350     0.7820 hc         1 PLY       0.040200
     24 H42         -5.1830     1.1790    -0.9810 hc         1 PLY       0.040200
     25 H51         -3.9210    -0.9940    -1.0200 hc         1 PLY       0.038700
     26 H52         -3.9430    -1.0380     0.7430 hc         1 PLY       0.038700
     27 H61         -2.6290     1.1030     0.8130 hc         1 PLY       0.038200
     28 H62         -2.6070     1.1470    -0.9500 hc         1 PLY       0.038200
     29 H71         -1.3450    -1.0260    -0.9890 hc         1 PLY       0.037700
     30 H72         -1.3670    -1.0700     0.7740 hc         1 PLY       0.037700
     31 H81         -0.0530     1.0710     0.8440 hc         1 PLY       0.037700
     32 H82         -0.0320     1.1150    -0.9200 hc         1 PLY       0.037700
     33 H91          1.2300    -1.0570    -0.9590 hc         1 PLY       0.037200
     34 H92          1.2090    -1.1010     0.8050 hc         1 PLY       0.037200
     35 HA1          2.5230     1.0400     0.8740 hc         1 PLY       0.037200
     36 HA2          2.5440     1.0840    -0.8890 hc         1 PLY       0.037200
     37 HB1          3.8060    -1.0890    -0.9280 hc         1 PLY       0.037200
     38 HB2          3.7850    -1.1330     0.8350 hc         1 PLY       0.037200
     39 HC1          5.0990     1.0080     0.9040 hc         1 PLY       0.036700
     40 HC2          5.1200     1.0520    -0.8590 hc         1 PLY       0.036700
     41 HD1          6.3820    -1.1200    -0.8980 hc         1 PLY       0.036700
     42 HD2          6.3610    -1.1640     0.8650 hc         1 PLY       0.036700
     43 HE1          7.6750     0.9770     0.9340 hc         1 PLY       0.036700
     44 HE2          7.6960     1.0210    -0.8290 hc         1 PLY       0.036700
     45 HF1          8.9630    -1.1510    -0.8680 hc         1 PLY       0.036700
     46 HF2          8.9420    -1.1950     0.8950 hc         1 PLY       0.036700
     47 HG1         10.2900     0.9300     0.9720 hc         1 PLY       0.031367
     48 HG2         11.1290    -0.3440     0.0600 hc         1 PLY       0.031367
     49 HG3         10.3110     0.9740    -0.8070 hc         1 PLY       0.031367
@<TRIPOS>BOND
     1     1     2 2   
     2     1     3 1   
     3     1    18 1   
     4     3     4 1   
     5     3    19 1   
     6     3    20 1   
     7     4     5 1   
     8     4    21 1   
     9     4    22 1   
    10     5     6 1   
    11     5    23 1   
    12     5    24 1   
    13     6     7 1   
    14     6    25 1   
    15     6    26 1   
    16     7     8 1   
    17     7    27 1   
    18     7    28 1   
    19     8     9 1   
    20     8    29 1   
    21     8    30 1   
    22     9    10 1   
    23     9    31 1   
    24     9    32 1   
    25    10    11 1   
    26    10    33 1   
    27    10    34 1   
    28    11    12 1   
    29    11    35 1   
    30    11    36 1   
    31    12    13 1   
    32    12    37 1   
    33    12    38 1   
    34    13    14 1   
    35    13    39 1   
    36    13    40 1   
    37    14    15 1   
    38    14    41 1   
    39    14    42 1   
    40    15    16 1   
    41    15    43 1   
    42    15    44 1   
    43    16    17 1   
    44    16    45 1   
    45    16    46 1   
    46    17    47 1   
    47    17    48 1   
    48    17    49 1   
@<TRIPOS>SUBSTRUCTURE
     1 PLY         1 TEMP              0 ****  ****    0 ROOT
