@<TRIPOS>MOLECULE
PLY
   49    48     1     0     0
SMALL
bcc


@<TRIPOS>ATOM
      1 C1          -8.9050    -0.2660    -0.2440 c          1 PLY       0.574900
      2 O2          -9.8360    -0.2640     0.5230 o          1 PLY      -0.513100
      3 C2          -7.6610     0.5500    -0.1000 c3         1 PLY      -0.204400
      4 C3          -6.4090    -0.3300    -0.1410 c3         1 PLY      -0.067400
      5 C4          -5.1260     0.4910    -0.0890 c3         1 PLY      -0.074400
      6 C5          -3.8700    -0.3700    -0.1150 c3         1 PLY      -0.074400
      7 C6          -2.5850     0.4470    -0.0660 c3         1 PLY      -0.074400
      8 C7          -1.3250    -0.4090    -0.0890 c3         1 PLY      -0.074400
      9 C8          -0.0420     0.4110    -0.0420 c3         1 PLY      -0.074400
     10 C9           1.2200    -0.4420    -0.0620 c3         1 PLY      -0.074400
     11 CA           2.5020     0.3800    -0.0180 c3         1 PLY      -0.074400
     12 CB           3.7670    -0.4700    -0.0350 c3         1 PLY      -0.074400
     13 CC           5.0460     0.3560     0.0050 c3         1 PLY      -0.074400
     14 CD           6.3130    -0.4900    -0.0090 c3         1 PLY      -0.074400
     15 CE           7.5890     0.3420     0.0260 c3         1 PLY      -0.075400
     16 CF           8.8610    -0.4980     0.0160 c3         1 PLY      -0.075400
     17 CG          10.1260     0.3490     0.0510 c3         1 PLY      -0.088100
     18 H11         -8.9200    -0.9090    -1.1430 h4         1 PLY      -0.021800
     19 H21         -7.7000     1.1420     0.8160 hc         1 PLY       0.067200
     20 H22         -7.6310     1.2450    -0.9490 hc         1 PLY       0.067200
     21 H31         -6.4170    -0.9360    -1.0520 hc         1 PLY       0.042700
     22 H32         -6.4290    -1.0320     0.6980 hc         1 PLY       0.042700
     23 H41         -5.1260     1.1080     0.8150 hc         1 PLY       0.040200
     24 H42         -5.1090     1.1880    -0.9340 hc         1 PLY       0.040200
     25 H51         -3.8720    -0.9910    -1.0180 hc         1 PLY       0.038700
     26 H52         -3.8900    -1.0670     0.7310 hc         1 PLY       0.038700
     27 H61         -2.5850     1.0690     0.8360 hc         1 PLY       0.038200
     28 H62         -2.5660     1.1430    -0.9130 hc         1 PLY       0.038200
     29 H71         -1.3250    -1.0320    -0.9910 hc         1 PLY       0.037700
     30 H72         -1.3440    -1.1040     0.7580 hc         1 PLY       0.037700
     31 H81         -0.0430     1.0350     0.8590 hc         1 PLY       0.037700
     32 H82         -0.0230     1.1050    -0.8900 hc         1 PLY       0.037700
     33 H91          1.2220    -1.0680    -0.9620 hc         1 PLY       0.037200
     34 H92          1.2040    -1.1350     0.7880 hc         1 PLY       0.037200
     35 HA1          2.5000     1.0080     0.8810 hc         1 PLY       0.037200
     36 HA2          2.5190     1.0710    -0.8680 hc         1 PLY       0.037200
     37 HB1          3.7680    -1.0990    -0.9330 hc         1 PLY       0.037200
     38 HB2          3.7520    -1.1590     0.8160 hc         1 PLY       0.037200
     39 HC1          5.0420     0.9870     0.9010 hc         1 PLY       0.036700
     40 HC2          5.0600     1.0440    -0.8480 hc         1 PLY       0.036700
     41 HD1          6.3170    -1.1230    -0.9040 hc         1 PLY       0.036700
     42 HD2          6.3020    -1.1750     0.8460 hc         1 PLY       0.036700
     43 HE1          7.5840     0.9770     0.9200 hc         1 PLY       0.036700
     44 HE2          7.6010     1.0260    -0.8300 hc         1 PLY       0.036700
     45 HF1          8.8680    -1.1340    -0.8760 hc         1 PLY       0.036700
     46 HF2          8.8510    -1.1790     0.8730 hc         1 PLY       0.036700
     47 HG1         10.1570     0.9700     0.9490 hc         1 PLY       0.031367
     48 HG2         11.0260    -0.2670     0.0450 hc         1 PLY       0.031367
     49 HG3         10.1760     1.0160    -0.8120 hc         1 PLY       0.031367
@<TRIPOS>BOND
     1     1     2 2   
     2     1     3 1   
     3     1    18 1   
     4     3     4 1   
     5     3    19 1   
     6     3    20 1   
     7     4     5 1   
     8     4    21 1   
     9     4    22 1   
    10     5     6 1   
    11     5    23 1   
    12     5    24 1   
    13     6     7 1   
    14     6    25 1   
    15     6    26 1   
    16     7     8 1   
    17     7    27 1   
    18     7    28 1   
    19     8     9 1   
    20     8    29 1   
    21     8    30 1   
    22     9    10 1   
    23     9    31 1   
    24     9    32 1   
    25    10    11 1   
    26    10    33 1   
    27    10    34 1   
    28    11    12 1   
    29    11    35 1   
    30    11    36 1   
    31    12    13 1   
    32    12    37 1   
    33    12    38 1   
    34    13    14 1   
    35    13    39 1   
    36    13    40 1   
    37    14    15 1   
    38    14    41 1   
    39    14    42 1   
    40    15    16 1   
    41    15    43 1   
    42    15    44 1   
    43    16    17 1   
    44    16    45 1   
    45    16    46 1   
    46    17    47 1   
    47    17    48 1   
    48    17    49 1   
@<TRIPOS>SUBSTRUCTURE
     1 PLY         1 TEMP              0 ****  ****    0 ROOT
