@<TRIPOS>MOLECULE
PM1
   41    44     1     0     0
SMALL
No Charge or Current Charge


@<TRIPOS>ATOM
      1 C1           0.4340     0.5040    -1.6220 cc         1 PM1      -0.239600
      2 C2          -0.1540     0.6020    -0.3560 cd         1 PM1      -0.003000
      3 N3           0.5320    -0.0610     0.6710 na         1 PM1       0.162100
      4 C4           1.6470    -0.8260     0.4520 cd         1 PM1       0.011000
      5 C5           2.2480    -0.9640    -0.8300 cd         1 PM1      -0.130000
      6 C6           1.6280    -0.2900    -1.8580 cc         1 PM1      -0.033000
      7 C10          0.1400    -0.1380     1.9940 cd         1 PM1      -0.381300
      8 C11          1.1170    -0.9570     2.5040 cc         1 PM1       0.411600
      9 N12          2.0330    -1.3790     1.5840 nc         1 PM1      -0.382600
     10 C13         -0.9810     0.5120     2.7160 c          1 PM1       0.632900
     11 C14         -1.2210     0.1550     4.1560 ca         1 PM1      -0.163600
     12 C15         -1.0520     1.1290     5.1620 ca         1 PM1      -0.075500
     13 C16         -1.2850     0.8010     6.5090 ca         1 PM1      -0.121500
     14 C17         -1.6970    -0.4970     6.8570 ca         1 PM1      -0.095000
     15 C18         -1.8820    -1.4660     5.8570 ca         1 PM1      -0.121500
     16 C19         -1.6500    -1.1420     4.5090 ca         1 PM1      -0.075500
     17 C23         -0.2650     1.1570    -2.7610 c          1 PM1       0.623300
     18 C24         -0.1460     0.5100    -4.1060 ca         1 PM1      -0.257600
     19 C25          0.1560     1.2930    -5.2340 ca         1 PM1       0.232000
     20 C26          0.2630     0.7060    -6.5050 ca         1 PM1      -0.176000
     21 C27          0.0550    -0.6730    -6.6660 ca         1 PM1      -0.043000
     22 C28         -0.2670    -1.4580    -5.5480 ca         1 PM1      -0.176000
     23 C29         -0.3700    -0.8710    -4.2770 ca         1 PM1       0.232000
     24 O33         -1.0400     2.0900    -2.5940 o          1 PM1      -0.489100
     25 O34         -1.7150     1.3250     2.1710 o          1 PM1      -0.561100
     26 N35          1.3270    -1.3780     3.7620 nv         1 PM1      -0.945000
     27 F36          0.3800     2.6190    -5.1070 f          1 PM1      -0.161500
     28 F39         -0.7300    -1.6470    -3.2310 f          1 PM1      -0.161500
     29 H2          -1.0620     1.1420    -0.1250 h4         1 PM1       0.196000
     30 H5           3.1360    -1.5670    -0.9890 ha         1 PM1       0.149000
     31 H6           2.0430    -0.3530    -2.8600 ha         1 PM1       0.130000
     32 H15         -0.7370     2.1370     4.8990 ha         1 PM1       0.127000
     33 H16         -1.1490     1.5530     7.2820 ha         1 PM1       0.118000
     34 H17         -1.8780    -0.7490     7.9000 ha         1 PM1       0.115000
     35 H18         -2.2070    -2.4690     6.1260 ha         1 PM1       0.118000
     36 H19         -1.7990    -1.8970     3.7390 ha         1 PM1       0.127000
     37 H26          0.5090     1.3240    -7.3650 ha         1 PM1       0.142000
     38 H27          0.1350    -1.1290    -7.6520 ha         1 PM1       0.125000
     39 H28         -0.4460    -2.5240    -5.6640 ha         1 PM1       0.142000
     40 H351         2.2140    -1.8170     3.9850 hn         1 PM1       0.498000
     41 H352         0.7930    -0.9720     4.5240 hn         1 PM1       0.498000
@<TRIPOS>BOND
     1     1     2 2   
     2     1     6 1   
     3     1    17 1   
     4     2     3 1   
     5     2    29 1   
     6     3     4 1   
     7     3     7 1   
     8     4     5 1   
     9     4     9 2   
    10     5     6 2   
    11     5    30 1   
    12     6    31 1   
    13     7     8 2   
    14     7    10 1   
    15     8     9 1   
    16     8    26 1   
    17    10    11 1   
    18    10    25 2   
    19    11    12 ar  
    20    11    16 ar  
    21    12    13 ar  
    22    12    32 1   
    23    13    14 ar  
    24    13    33 1   
    25    14    15 ar  
    26    14    34 1   
    27    15    16 ar  
    28    15    35 1   
    29    16    36 1   
    30    17    18 1   
    31    17    24 2   
    32    18    19 ar  
    33    18    23 ar  
    34    19    20 ar  
    35    19    27 1   
    36    20    21 ar  
    37    20    37 1   
    38    21    22 ar  
    39    21    38 1   
    40    22    23 ar  
    41    22    39 1   
    42    23    28 1   
    43    26    40 1   
    44    26    41 1   
@<TRIPOS>SUBSTRUCTURE
     1 PM1         1 TEMP              0 ****  ****    0 ROOT
