@<TRIPOS>MOLECULE
PM1
   41    44     1     0     0
SMALL
bcc


@<TRIPOS>ATOM
      1 C1           0.2320     0.1410    -1.5980 cc         1 PM1      -0.239600
      2 C2          -0.1910     0.3150    -0.3000 cd         1 PM1       0.029700
      3 N3           0.4900    -0.2570     0.7060 na         1 PM1       0.060700
      4 C4           1.6290    -1.0090     0.4900 cd         1 PM1       0.061700
      5 C5           2.0860    -1.1910    -0.8230 cd         1 PM1      -0.148000
      6 C6           1.3910    -0.6270    -1.8530 cc         1 PM1      -0.051000
      7 C10          0.2510    -0.2710     2.0880 cd         1 PM1      -0.381300
      8 C11          1.3260    -1.0310     2.6030 cc         1 PM1       0.411600
      9 N12          2.1350    -1.4670     1.6190 nc         1 PM1      -0.382600
     10 C13         -0.8010     0.4690     2.7070 c          1 PM1       0.632900
     11 C14         -1.1030     0.1950     4.1430 ca         1 PM1      -0.163600
     12 C15         -1.2060     1.2600     5.0350 ca         1 PM1      -0.093500
     13 C16         -1.5510     1.0280     6.3580 ca         1 PM1      -0.139500
     14 C17         -1.8260    -0.2640     6.7900 ca         1 PM1      -0.113000
     15 C18         -1.7500    -1.3260     5.8970 ca         1 PM1      -0.139500
     16 C19         -1.3830    -1.0990     4.5780 ca         1 PM1      -0.093500
     17 C23         -0.5380     0.7980    -2.6660 c          1 PM1       0.623300
     18 C24         -0.2500     0.3950    -4.0800 ca         1 PM1      -0.257600
     19 C25          0.2200     1.3110    -5.0100 ca         1 PM1       0.196900
     20 C26          0.4350     0.9850    -6.3330 ca         1 PM1      -0.194000
     21 C27          0.1510    -0.3090    -6.7470 ca         1 PM1      -0.061000
     22 C28         -0.3310    -1.2590    -5.8570 ca         1 PM1      -0.194000
     23 C29         -0.5160    -0.8840    -4.5430 ca         1 PM1       0.196900
     24 O33         -1.3770     1.6420    -2.4400 o          1 PM1      -0.489100
     25 O34         -1.4670     1.3120     2.1100 o          1 PM1      -0.561100
     26 N35          1.6090    -1.3410     3.8730 nv         1 PM1      -0.834600
     27 F36          0.4980     2.5480    -4.5890 f          1 PM1      -0.126400
     28 F39         -0.9840    -1.7780    -3.6640 f          1 PM1      -0.126400
     29 H2          -1.0630     0.8920    -0.0410 h4         1 PM1       0.214000
     30 H5           2.9810    -1.7730    -0.9870 ha         1 PM1       0.167000
     31 H6           1.7510    -0.7520    -2.8650 ha         1 PM1       0.148000
     32 H15         -1.0000     2.2680     4.7000 ha         1 PM1       0.145000
     33 H16         -1.6110     1.8560     7.0520 ha         1 PM1       0.136000
     34 H17         -2.1020    -0.4440     7.8200 ha         1 PM1       0.133000
     35 H18         -1.9760    -2.3310     6.2280 ha         1 PM1       0.136000
     36 H19         -1.3280    -1.9280     3.8840 ha         1 PM1       0.145000
     37 H26          0.8160     1.7240    -7.0240 ha         1 PM1       0.160000
     38 H27          0.3080    -0.5820    -7.7820 ha         1 PM1       0.143000
     39 H28         -0.5610    -2.2660    -6.1770 ha         1 PM1       0.160000
     40 H351         2.5160    -1.7310     4.0660 hn         1 PM1       0.442800
     41 H352         1.1460    -0.8830     4.6380 hn         1 PM1       0.442800
@<TRIPOS>BOND
     1     1     2 2   
     2     1     6 1   
     3     1    17 1   
     4     2     3 1   
     5     2    29 1   
     6     3     4 1   
     7     3     7 1   
     8     4     5 1   
     9     4     9 2   
    10     5     6 2   
    11     5    30 1   
    12     6    31 1   
    13     7     8 2   
    14     7    10 1   
    15     8     9 1   
    16     8    26 1   
    17    10    11 1   
    18    10    25 2   
    19    11    12 ar  
    20    11    16 ar  
    21    12    13 ar  
    22    12    32 1   
    23    13    14 ar  
    24    13    33 1   
    25    14    15 ar  
    26    14    34 1   
    27    15    16 ar  
    28    15    35 1   
    29    16    36 1   
    30    17    18 1   
    31    17    24 2   
    32    18    19 ar  
    33    18    23 ar  
    34    19    20 ar  
    35    19    27 1   
    36    20    21 ar  
    37    20    37 1   
    38    21    22 ar  
    39    21    38 1   
    40    22    23 ar  
    41    22    39 1   
    42    23    28 1   
    43    26    40 1   
    44    26    41 1   
@<TRIPOS>SUBSTRUCTURE
     1 PM1         1 TEMP              0 ****  ****    0 ROOT
