@<TRIPOS>MOLECULE
PM2
   59    62     1     0     0
SMALL
No Charge or Current Charge


@<TRIPOS>ATOM
      1 C1           0.2630     0.0860     4.7280 ca         1 PM2      -0.082300
      2 C2           1.3590     0.4500     5.5370 ca         1 PM2      -0.084000
      3 C3          -0.7060    -0.8010     5.2430 ca         1 PM2      -0.104000
      4 C4           1.4920    -0.0600     6.8440 ca         1 PM2      -0.086300
      5 C5          -0.5780    -1.3130     6.5450 ca         1 PM2      -0.111000
      6 C6           0.5170    -0.9440     7.3440 ca         1 PM2      -0.111000
      7 C7           2.6760     0.3500     7.7110 c3         1 PM2       0.197100
      8 N8           3.8580    -0.4910     7.4460 n8         1 PM2      -0.999200
      9 C9           0.1750    -0.4600     2.2280 c6         1 PM2      -0.097900
     10 C10          0.0350     0.1250     0.8010 c6         1 PM2       0.091000
     11 C11         -2.3520     0.5160     0.0130 c          1 PM2       0.616700
     12 O12         -3.4630     0.8710     0.3850 o          1 PM2      -0.588100
     13 C13          0.1360     0.6530     3.3060 c6         1 PM2      -0.013400
     14 N14         -1.1860     0.9730     0.6710 n          1 PM2      -0.396800
     15 C15         -1.2490     2.0570     1.6890 c6         1 PM2       0.091000
     16 C16         -1.1500     1.5010     3.1290 c6         1 PM2      -0.097900
     17 C17         -2.2060    -0.3220    -1.2250 ca         1 PM2      -0.194600
     18 C18         -1.1140    -0.2000    -2.1100 ca         1 PM2      -0.049000
     19 C19         -3.2360    -1.2180    -1.5530 ca         1 PM2       0.372900
     20 C20         -1.0820    -1.0100    -3.2580 ca         1 PM2      -0.138300
     21 N21         -3.2150    -2.0030    -2.6560 nb         1 PM2      -0.666000
     22 C22          0.0790    -0.9180    -4.2400 c3         1 PM2      -0.025100
     23 C23         -2.1520    -1.8980    -3.4860 ca         1 PM2       0.350900
     24 C24         -0.0450     0.3000    -5.1790 c3         1 PM2      -0.030100
     25 C25          1.1170     0.3890    -6.1590 ca         1 PM2      -0.082300
     26 C26          1.0330    -0.2340    -7.4200 ca         1 PM2      -0.106500
     27 C27          2.2890     1.0870    -5.8090 ca         1 PM2      -0.106500
     28 C28          2.1080    -0.1560    -8.3220 ca         1 PM2      -0.108500
     29 C29          3.3640     1.1650    -6.7110 ca         1 PM2      -0.108500
     30 C30          3.2740     0.5440    -7.9680 ca         1 PM2      -0.110000
     31 H2           2.1150     1.1320     5.1530 ha         1 PM2       0.128000
     32 H3          -1.5590    -1.0960     4.6380 ha         1 PM2       0.112000
     33 H5          -1.3290    -1.9960     6.9350 ha         1 PM2       0.113000
     34 H6           0.6060    -1.3450     8.3510 ha         1 PM2       0.109000
     35 H7C1         2.4070     0.2590     8.7730 h1         1 PM2       0.035200
     36 H7C2         2.9350     1.4000     7.5150 h1         1 PM2       0.035200
     37 H8N1         4.5970    -0.2450     8.1160 hn         1 PM2       0.396500
     38 H8N2         3.6270    -1.4620     7.6830 hn         1 PM2       0.396500
     39 H9C1         1.1150    -1.0220     2.3050 hc         1 PM2       0.054950
     40 H9C2        -0.6350    -1.1820     2.3980 hc         1 PM2       0.054950
     41 H101         0.9190     0.7350     0.5650 h1         1 PM2       0.058950
     42 H102         0.0180    -0.7130     0.0940 h1         1 PM2       0.058950
     43 H13          0.9930     1.3170     3.1220 hc         1 PM2       0.051700
     44 H151        -0.4160     2.7530     1.5120 h1         1 PM2       0.058950
     45 H152        -2.1750     2.6380     1.5800 h1         1 PM2       0.058950
     46 H161        -2.0410     0.8960     3.3430 hc         1 PM2       0.054950
     47 H162        -1.1540     2.3320     3.8470 hc         1 PM2       0.054950
     48 H18         -0.3160     0.5170    -1.9250 ha         1 PM2       0.125000
     49 H19         -4.1080    -1.3300    -0.9080 h4         1 PM2       0.032100
     50 H221         1.0270    -0.8520    -3.6920 hc         1 PM2       0.053200
     51 H222         0.1390    -1.8310    -4.8460 hc         1 PM2       0.053200
     52 H23         -2.1650    -2.5390    -4.3660 h4         1 PM2       0.020100
     53 H241        -0.9960     0.2370    -5.7240 hc         1 PM2       0.052700
     54 H242        -0.1000     1.2150    -4.5760 hc         1 PM2       0.052700
     55 H26          0.1350    -0.7790    -7.7010 ha         1 PM2       0.110500
     56 H27          2.3680     1.5680    -4.8360 ha         1 PM2       0.110500
     57 H28          2.0370    -0.6380    -9.2950 ha         1 PM2       0.112500
     58 H29          4.2670     1.7060    -6.4350 ha         1 PM2       0.112500
     59 H30          4.1060     0.6040    -8.6660 ha         1 PM2       0.113000
@<TRIPOS>BOND
     1     1     2 ar  
     2     1     3 ar  
     3     1    13 1   
     4     2     4 ar  
     5     2    31 1   
     6     3     5 ar  
     7     3    32 1   
     8     4     6 ar  
     9     4     7 1   
    10     5     6 ar  
    11     5    33 1   
    12     6    34 1   
    13     7     8 1   
    14     7    35 1   
    15     7    36 1   
    16     8    37 1   
    17     8    38 1   
    18     9    10 1   
    19     9    13 1   
    20     9    39 1   
    21     9    40 1   
    22    10    14 1   
    23    10    41 1   
    24    10    42 1   
    25    11    12 2   
    26    11    14 1   
    27    11    17 1   
    28    13    16 1   
    29    13    43 1   
    30    14    15 1   
    31    15    16 1   
    32    15    44 1   
    33    15    45 1   
    34    16    46 1   
    35    16    47 1   
    36    17    18 ar  
    37    17    19 ar  
    38    18    20 ar  
    39    18    48 1   
    40    19    21 ar  
    41    19    49 1   
    42    20    22 1   
    43    20    23 ar  
    44    21    23 ar  
    45    22    24 1   
    46    22    50 1   
    47    22    51 1   
    48    23    52 1   
    49    24    25 1   
    50    24    53 1   
    51    24    54 1   
    52    25    26 ar  
    53    25    27 ar  
    54    26    28 ar  
    55    26    55 1   
    56    27    29 ar  
    57    27    56 1   
    58    28    30 ar  
    59    28    57 1   
    60    29    30 ar  
    61    29    58 1   
    62    30    59 1   
@<TRIPOS>SUBSTRUCTURE
     1 PM2         1 TEMP              0 ****  ****    0 ROOT
