@<TRIPOS>MOLECULE
PM2
   59    62     1     0     0
SMALL
bcc


@<TRIPOS>ATOM
      1 C1           0.1950    -0.1130     4.7880 ca         1 PM2      -0.082300
      2 C2           1.0760     0.1830     5.8230 ca         1 PM2      -0.102000
      3 C3          -0.8500    -1.0040     5.0340 ca         1 PM2      -0.122000
      4 C4           0.9420    -0.3870     7.0870 ca         1 PM2      -0.086300
      5 C5          -0.9930    -1.5850     6.2850 ca         1 PM2      -0.129000
      6 C6          -0.1000    -1.2840     7.3050 ca         1 PM2      -0.129000
      7 C7           1.8740    -0.0220     8.2150 c3         1 PM2       0.197100
      8 N8           3.2150     0.2870     7.7510 n8         1 PM2      -0.888800
      9 C9           0.4220    -0.4650     2.2910 c6         1 PM2      -0.097900
     10 C10          0.5440     0.2350     0.9410 c6         1 PM2       0.091000
     11 C11         -1.6490     0.9400     0.0220 c          1 PM2       0.683700
     12 O12         -2.7040     1.5430     0.1630 o          1 PM2      -0.588100
     13 C13          0.3570     0.5440     3.4400 c6         1 PM2      -0.013400
     14 N14         -0.5480     1.1830     0.7620 n          1 PM2      -0.463800
     15 C15         -0.5850     2.2010     1.8000 c6         1 PM2       0.091000
     16 C16         -0.7520     1.5690     3.1750 c6         1 PM2      -0.097900
     17 C17         -1.5480    -0.0890    -1.0590 ca         1 PM2      -0.259900
     18 C18         -0.6130    -0.0030    -2.0810 ca         1 PM2      -0.067000
     19 C19         -2.4930    -1.1070    -1.1210 ca         1 PM2       0.438200
     20 C20         -0.6420    -0.9240    -3.1200 ca         1 PM2      -0.203600
     21 N21         -2.5210    -2.0080    -2.0910 nb         1 PM2      -0.666000
     22 C22          0.3050    -0.8280    -4.2790 c3         1 PM2      -0.025100
     23 C23         -1.6210    -1.9110    -3.0620 ca         1 PM2       0.416200
     24 C24         -0.1800     0.1980    -5.3160 c3         1 PM2      -0.030100
     25 C25          0.7720     0.3160    -6.4720 ca         1 PM2      -0.082300
     26 C26          0.6780    -0.5460    -7.5620 ca         1 PM2      -0.124500
     27 C27          1.7950     1.2620    -6.4600 ca         1 PM2      -0.124500
     28 C28          1.5780    -0.4640    -8.6160 ca         1 PM2      -0.126500
     29 C29          2.6980     1.3490    -7.5120 ca         1 PM2      -0.126500
     30 C30          2.5920     0.4850    -8.5940 ca         1 PM2      -0.128000
     31 H2           1.8910     0.8740     5.6430 ha         1 PM2       0.146000
     32 H3          -1.5550    -1.2500     4.2490 ha         1 PM2       0.130000
     33 H5          -1.8020    -2.2830     6.4650 ha         1 PM2       0.131000
     34 H6          -0.2130    -1.7510     8.2760 ha         1 PM2       0.127000
     35 H7C1         1.8370    -0.8200     8.9690 h1         1 PM2       0.035200
     36 H7C2         1.4810     0.8710     8.7110 h1         1 PM2       0.035200
     37 H8N1         3.7680     0.6210     8.5310 hn         1 PM2       0.341300
     38 H8N2         3.6670    -0.5600     7.4320 hn         1 PM2       0.341300
     39 H9C1         1.2760    -1.1330     2.4230 hc         1 PM2       0.054950
     40 H9C2        -0.4740    -1.0930     2.2810 hc         1 PM2       0.054950
     41 H101         1.4880     0.7830     0.8850 h1         1 PM2       0.058950
     42 H102         0.5520    -0.5020     0.1430 h1         1 PM2       0.058950
     43 H13          1.3070     1.0910     3.4470 hc         1 PM2       0.051700
     44 H151         0.3590     2.7540     1.7570 h1         1 PM2       0.058950
     45 H152        -1.3840     2.9070     1.5930 h1         1 PM2       0.058950
     46 H161        -1.7350     1.0930     3.2350 hc         1 PM2       0.054950
     47 H162        -0.7290     2.3510     3.9370 hc         1 PM2       0.054950
     48 H18          0.1350     0.7820    -2.0750 ha         1 PM2       0.143000
     49 H19         -3.2460    -1.2020    -0.3450 h4         1 PM2       0.032100
     50 H221         1.2970    -0.5400    -3.9240 hc         1 PM2       0.053200
     51 H222         0.4110    -1.8040    -4.7580 hc         1 PM2       0.053200
     52 H23         -1.6770    -2.6600    -3.8460 h4         1 PM2       0.020100
     53 H241        -1.1690    -0.0980    -5.6740 hc         1 PM2       0.052700
     54 H242        -0.3000     1.1690    -4.8300 hc         1 PM2       0.052700
     55 H26         -0.1130    -1.2880    -7.5890 ha         1 PM2       0.128500
     56 H27          1.8830     1.9440    -5.6220 ha         1 PM2       0.128500
     57 H28          1.4850    -1.1390    -9.4570 ha         1 PM2       0.130500
     58 H29          3.4830     2.0930    -7.4870 ha         1 PM2       0.130500
     59 H30          3.2920     0.5530    -9.4170 ha         1 PM2       0.131000
@<TRIPOS>BOND
     1     1     2 ar  
     2     1     3 ar  
     3     1    13 1   
     4     2     4 ar  
     5     2    31 1   
     6     3     5 ar  
     7     3    32 1   
     8     4     6 ar  
     9     4     7 1   
    10     5     6 ar  
    11     5    33 1   
    12     6    34 1   
    13     7     8 1   
    14     7    35 1   
    15     7    36 1   
    16     8    37 1   
    17     8    38 1   
    18     9    10 1   
    19     9    13 1   
    20     9    39 1   
    21     9    40 1   
    22    10    14 1   
    23    10    41 1   
    24    10    42 1   
    25    11    12 2   
    26    11    14 1   
    27    11    17 1   
    28    13    16 1   
    29    13    43 1   
    30    14    15 1   
    31    15    16 1   
    32    15    44 1   
    33    15    45 1   
    34    16    46 1   
    35    16    47 1   
    36    17    18 ar  
    37    17    19 ar  
    38    18    20 ar  
    39    18    48 1   
    40    19    21 ar  
    41    19    49 1   
    42    20    22 1   
    43    20    23 ar  
    44    21    23 ar  
    45    22    24 1   
    46    22    50 1   
    47    22    51 1   
    48    23    52 1   
    49    24    25 1   
    50    24    53 1   
    51    24    54 1   
    52    25    26 ar  
    53    25    27 ar  
    54    26    28 ar  
    55    26    55 1   
    56    27    29 ar  
    57    27    56 1   
    58    28    30 ar  
    59    28    57 1   
    60    29    30 ar  
    61    29    58 1   
    62    30    59 1   
@<TRIPOS>SUBSTRUCTURE
     1 PM2         1 TEMP              0 ****  ****    0 ROOT
