@<TRIPOS>MOLECULE
PM3
   28    28     1     0     0
SMALL
bcc


@<TRIPOS>ATOM
      1 N           13.5870    18.9790    13.6080 n8         1 PM3      -0.889800
      2 CA          12.4900    18.4330    14.3850 c3         1 PM3       0.035500
      3 CB          11.4830    19.4900    14.9020 c3         1 PM3      -0.041100
      4 CG          12.1330    20.5580    15.7330 ca         1 PM3      -0.145300
      5 CD1         12.5570    21.7640    15.1780 ca         1 PM3      -0.140500
      6 CE1         13.2120    22.7220    15.9430 ca         1 PM3      -0.148000
      7 CD2         12.3890    20.3550    17.0890 ca         1 PM3      -0.140500
      8 CE2         13.0420    21.3110    17.8510 ca         1 PM3      -0.148000
      9 CZ          13.4690    22.5230    17.3000 ca         1 PM3       0.049700
     10 CH4         14.2240    23.5140    18.1100 c3         1 PM3      -0.186300
     11 P           16.0910    23.1790    18.1350 p5         1 PM3       1.131700
     12 O1          16.2190    21.7530    18.6860 o          1 PM3      -0.925500
     13 O2          16.5380    23.3320    16.6760 o          1 PM3      -0.925500
     14 O3          16.6330    24.2630    19.0760 o          1 PM3      -0.925500
     15 C           11.6970    17.3870    13.5670 c          1 PM3       0.931600
     16 OXT         11.0750    16.5320    14.2270 o          1 PM3      -0.867800
     17 O           11.7040    17.5180    12.3260 o          1 PM3      -0.867800
     18 H           13.9530    19.8090    14.0600 hn         1 PM3       0.333800
     19 H2          13.2270    19.2710    12.7080 hn         1 PM3       0.333800
     20 HA          12.9080    17.9330    15.2650 h1         1 PM3       0.051700
     21 HB2         10.7160    18.9790    15.4900 hc         1 PM3       0.022700
     22 HB3         10.9760    19.9420    14.0430 hc         1 PM3       0.022700
     23 HD1         12.3640    21.9620    14.1290 ha         1 PM3       0.088500
     24 HE1         13.5180    23.6510    15.4770 ha         1 PM3       0.117000
     25 HD2         12.0690    19.4300    17.5570 ha         1 PM3       0.088500
     26 HE2         13.2170    21.1200    18.9030 ha         1 PM3       0.117000
     27 HH42        13.8670    23.5020    19.1440 hc         1 PM3       0.013700
     28 HH43        14.0560    24.5250    17.7260 hc         1 PM3       0.013700
@<TRIPOS>BOND
     1     1     2 1   
     2     1    18 1   
     3     1    19 1   
     4     2     3 1   
     5     2    15 1   
     6     2    20 1   
     7     3     4 1   
     8     3    21 1   
     9     3    22 1   
    10     4     5 ar  
    11     4     7 ar  
    12     5     6 ar  
    13     5    23 1   
    14     6     9 ar  
    15     6    24 1   
    16     7     8 ar  
    17     7    25 1   
    18     8     9 ar  
    19     8    26 1   
    20     9    10 1   
    21    10    11 1   
    22    10    27 1   
    23    10    28 1   
    24    11    12 1   
    25    11    13 1   
    26    11    14 1   
    27    15    16 1   
    28    15    17 1   
@<TRIPOS>SUBSTRUCTURE
     1 PM3         1 TEMP              0 ****  ****    0 ROOT
