@<TRIPOS>MOLECULE
PM3
   28    28     1     0     0
SMALL
No Charge or Current Charge


@<TRIPOS>ATOM
      1 N           13.6270    18.7760    13.7300 n8         1 PM3      -0.889800
      2 CA          12.3300    18.3370    14.3730 c3         1 PM3       0.035500
      3 CB          11.4760    19.5800    14.7420 c3         1 PM3      -0.041100
      4 CG          12.2060    20.5890    15.6290 ca         1 PM3      -0.145300
      5 CD1         12.5940    21.8420    15.1170 ca         1 PM3      -0.140500
      6 CE1         13.2560    22.7710    15.9410 ca         1 PM3      -0.148000
      7 CD2         12.4840    20.2790    16.9740 ca         1 PM3      -0.140500
      8 CE2         13.1450    21.2090    17.7950 ca         1 PM3      -0.148000
      9 CZ          13.5390    22.4600    17.2840 ca         1 PM3       0.049700
     10 CH4         14.2230    23.4800    18.1840 c3         1 PM3      -0.186300
     11 P           16.0740    23.4100    18.2280 p5         1 PM3       1.131700
     12 O1          16.5130    22.0760    18.7270 o          1 PM3      -0.925500
     13 O2          16.6180    23.6500    16.8620 o          1 PM3      -0.925500
     14 O3          16.5660    24.4720    19.1520 o          1 PM3      -0.925500
     15 C           11.4500    17.2620    13.5960 c          1 PM3       0.931600
     16 OXT         11.1890    16.1970    14.1500 o          1 PM3      -0.867800
     17 O           11.1320    17.4780    12.4280 o          1 PM3      -0.867800
     18 H           13.9800    19.5830    14.2540 hn         1 PM3       0.333800
     19 H2          13.4170    19.1530    12.8000 hn         1 PM3       0.333800
     20 HA          12.6090    17.8580    15.3220 h1         1 PM3       0.051700
     21 HB2         10.5700    19.2370    15.2580 hc         1 PM3       0.022700
     22 HB3         11.1290    20.0620    13.8200 hc         1 PM3       0.022700
     23 HD1         12.3830    22.1000    14.0820 ha         1 PM3       0.088500
     24 HE1         13.5470    23.7370    15.5350 ha         1 PM3       0.117000
     25 HD2         12.1850    19.3170    17.3850 ha         1 PM3       0.088500
     26 HE2         13.3510    20.9580    18.8330 ha         1 PM3       0.117000
     27 HH42        13.8720    23.3670    19.2170 hc         1 PM3       0.013700
     28 HH43        13.9470    24.4970    17.8790 hc         1 PM3       0.013700
@<TRIPOS>BOND
     1     1     2 1   
     2     1    18 1   
     3     1    19 1   
     4     2     3 1   
     5     2    15 1   
     6     2    20 1   
     7     3     4 1   
     8     3    21 1   
     9     3    22 1   
    10     4     5 ar  
    11     4     7 ar  
    12     5     6 ar  
    13     5    23 1   
    14     6     9 ar  
    15     6    24 1   
    16     7     8 ar  
    17     7    25 1   
    18     8     9 ar  
    19     8    26 1   
    20     9    10 1   
    21    10    11 1   
    22    10    27 1   
    23    10    28 1   
    24    11    12 1   
    25    11    13 1   
    26    11    14 1   
    27    15    16 1   
    28    15    17 1   
@<TRIPOS>SUBSTRUCTURE
     1 PM3         1 TEMP              0 ****  ****    0 ROOT
