@<TRIPOS>MOLECULE
PM6
   14    15     1     0     0
SMALL
abcg2


@<TRIPOS>ATOM
      1 N9           2.4980     0.2840    -0.1010 na         1 PM6      -0.412300
      2 C4           1.3600    -0.4510    -0.0020 ca         1 PM6       0.101500
      3 N3           1.2010    -1.7660    -0.0100 nb         1 PM6      -0.176000
      4 C2          -0.0650    -2.1250     0.1070 ca         1 PM6       0.149900
      5 N1          -1.1310    -1.3290     0.2240 nb         1 PM6      -0.224000
      6 C6          -0.9500    -0.0180     0.2280 ca         1 PM6       0.294300
      7 C5           0.3380     0.4950     0.1130 ca         1 PM6      -0.024600
      8 N7           0.8430     1.7650     0.0850 nc         1 PM6      -0.533100
      9 C8           2.1280     1.5920    -0.0430 cd         1 PM6       0.417700
     10 S6          -2.3060     1.0730     0.3760 sh         1 PM6      -0.302100
     11 HN9          3.4400    -0.0650    -0.1990 hn         1 PM6       0.373000
     12 H2          -0.2700    -3.1890     0.1090 h5         1 PM6       0.054100
     13 H8           2.8590     2.3830    -0.1020 h5         1 PM6       0.070800
     14 HS6         -3.2440     0.1210     0.4450 hs         1 PM6       0.210800
@<TRIPOS>BOND
     1     1     2 1   
     2     1     9 1   
     3     1    11 1   
     4     2     3 ar  
     5     2     7 ar  
     6     3     4 ar  
     7     4     5 ar  
     8     4    12 1   
     9     5     6 ar  
    10     6     7 ar  
    11     6    10 1   
    12     7     8 1   
    13     8     9 2   
    14     9    13 1   
    15    10    14 1   
@<TRIPOS>SUBSTRUCTURE
     1 PM6         1 TEMP              0 ****  ****    0 ROOT
