@<TRIPOS>MOLECULE
PM6
   14    15     1     0     0
SMALL
No Charge or Current Charge


@<TRIPOS>ATOM
      1 N9           2.5550     0.2820    -0.1060 na         1 PM6      -0.412300
      2 C4           1.3950    -0.4330    -0.0060 ca         1 PM6       0.101500
      3 N3           1.1790    -1.7610    -0.0070 nb         1 PM6      -0.176000
      4 C2          -0.1130    -2.1450     0.1110 ca         1 PM6       0.149900
      5 N1          -1.1910    -1.3330     0.2280 nb         1 PM6      -0.224000
      6 C6          -0.9500    -0.0030     0.2270 ca         1 PM6       0.294300
      7 C5           0.3740     0.4780     0.1070 ca         1 PM6      -0.024600
      8 N7           0.8340     1.7890     0.0850 nc         1 PM6      -0.533100
      9 C8           2.1630     1.6260    -0.0460 cd         1 PM6       0.417700
     10 S6          -2.3660     1.0700     0.3810 sh         1 PM6      -0.302100
     11 HN9          3.4990    -0.0700    -0.2030 hn         1 PM6       0.373000
     12 H2          -0.3070    -3.2160     0.1120 h5         1 PM6       0.054100
     13 H8           2.8940     2.4250    -0.1030 h5         1 PM6       0.070800
     14 HS6         -3.2650     0.0610     0.4510 hs         1 PM6       0.210800
@<TRIPOS>BOND
     1     1     2 1   
     2     1     9 1   
     3     1    11 1   
     4     2     3 ar  
     5     2     7 ar  
     6     3     4 ar  
     7     4     5 ar  
     8     4    12 1   
     9     5     6 ar  
    10     6     7 ar  
    11     6    10 1   
    12     7     8 1   
    13     8     9 2   
    14     9    13 1   
    15    10    14 1   
@<TRIPOS>SUBSTRUCTURE
     1 PM6         1 TEMP              0 ****  ****    0 ROOT
