@<TRIPOS>MOLECULE
PM7
   50    55     1     0     0
SMALL
abcg2


@<TRIPOS>ATOM
      1 N           66.3480    22.9590    88.0800 ns         1 PM7      -0.512900
      2 C           65.7010    23.2630    89.2180 c          1 PM7       0.537000
      3 O           66.1450    23.9870    90.0970 o          1 PM7      -0.556000
      4 C1          64.3470    22.5470    89.2220 c5         1 PM7       0.108200
      5 C10         66.1070    19.7650    80.9550 ca         1 PM7      -0.092000
      6 C11         65.3890    19.0840    81.9220 ca         1 PM7      -0.128000
      7 C12         65.4170    19.5900    83.2190 ca         1 PM7      -0.043200
      8 C13         65.1260    19.9760    85.4050 cc         1 PM7      -0.044300
      9 C14         64.6120    19.7740    86.7990 c6         1 PM7       0.026200
     10 C15         63.0770    19.8640    86.7930 c3         1 PM7      -0.086100
     11 C16         65.0010    18.3700    87.2950 c3         1 PM7      -0.086100
     12 C17         64.3360    22.9670    86.8150 c6         1 PM7       0.166800
     13 C18         62.9110    24.2080    88.4090 c5         1 PM7       0.167800
     14 C19         62.4460    23.9490    89.8400 c5         1 PM7      -0.075400
     15 C2          64.6530    21.0550    89.0750 c6         1 PM7      -0.056400
     16 C20         63.4600    22.9310    90.4030 c5         1 PM7      -0.060400
     17 C3          65.3370    20.8050    87.7120 c6         1 PM7      -0.045700
     18 C4          65.6280    22.1870    87.0720 c6         1 PM7       0.117400
     19 C5          66.4820    22.0560    85.8210 c6         1 PM7       0.001800
     20 C6          65.9410    20.9740    84.9540 cd         1 PM7      -0.147400
     21 C7          66.1450    20.7530    83.5560 ca         1 PM7      -0.087800
     22 C8          66.8630    21.4200    82.5590 ca         1 PM7      -0.064000
     23 C9          66.8380    20.9220    81.2690 ca         1 PM7      -0.139000
     24 N1          64.8130    19.1420    84.3600 na         1 PM7      -0.218700
     25 N2          63.5740    22.9710    88.0490 n3         1 PM7      -0.732600
     26 H1          67.2400    23.3830    87.8660 hn         1 PM7       0.320500
     27 H2          66.1060    19.3980    79.9370 ha         1 PM7       0.110000
     28 H3          64.8280    18.1910    81.6760 ha         1 PM7       0.113000
     29 H4          62.6550    19.5680    87.7530 hc         1 PM7       0.040200
     30 H5          62.7100    20.8630    86.5670 hc         1 PM7       0.040200
     31 H6          62.6640    19.1800    86.0490 hc         1 PM7       0.040200
     32 H7          64.7330    18.2510    88.3460 hc         1 PM7       0.040200
     33 H8          64.4860    17.5840    86.7410 hc         1 PM7       0.040200
     34 H9          66.0750    18.2020    87.2020 hc         1 PM7       0.040200
     35 H10         64.6180    23.9840    86.5070 h1         1 PM7       0.053200
     36 H11         63.7610    22.5350    85.9920 h1         1 PM7       0.053200
     37 H12         63.5930    25.0740    88.3670 h1         1 PM7       0.040200
     38 H13         62.0870    24.4200    87.7250 h1         1 PM7       0.040200
     39 H14         62.4080    24.8680    90.4240 hc         1 PM7       0.049200
     40 H15         61.4420    23.5250    89.8400 hc         1 PM7       0.049200
     41 H16         63.7150    20.5100    89.1700 hc         1 PM7       0.057200
     42 H17         65.2870    20.7210    89.8980 hc         1 PM7       0.057200
     43 H18         62.9510    22.0480    90.7890 hc         1 PM7       0.060200
     44 H19         64.0500    23.3450    91.2190 hc         1 PM7       0.060200
     45 H20         66.3290    20.3820    87.9010 hc         1 PM7       0.059700
     46 H21         67.5150    21.8340    86.1150 hc         1 PM7       0.055200
     47 H22         66.5130    23.0100    85.2860 hc         1 PM7       0.055200
     48 H23         67.4290    22.3140    82.7900 ha         1 PM7       0.112000
     49 H24         67.3900    21.4270    80.4880 ha         1 PM7       0.111000
     50 H25         64.2150    18.3340    84.4130 hn         1 PM7       0.350000
@<TRIPOS>BOND
     1     1     2 1   
     2     1    18 1   
     3     1    26 1   
     4     2     3 2   
     5     2     4 1   
     6     4    15 1   
     7     4    16 1   
     8     4    25 1   
     9     5     6 ar  
    10     5    23 ar  
    11     5    27 1   
    12     6     7 ar  
    13     6    28 1   
    14     7    21 ar  
    15     7    24 1   
    16     8     9 1   
    17     8    20 2   
    18     8    24 1   
    19     9    10 1   
    20     9    11 1   
    21     9    17 1   
    22    10    29 1   
    23    10    30 1   
    24    10    31 1   
    25    11    32 1   
    26    11    33 1   
    27    11    34 1   
    28    12    18 1   
    29    12    25 1   
    30    12    35 1   
    31    12    36 1   
    32    13    14 1   
    33    13    25 1   
    34    13    37 1   
    35    13    38 1   
    36    14    16 1   
    37    14    39 1   
    38    14    40 1   
    39    15    17 1   
    40    15    41 1   
    41    15    42 1   
    42    16    43 1   
    43    16    44 1   
    44    17    18 1   
    45    17    45 1   
    46    18    19 1   
    47    19    20 1   
    48    19    46 1   
    49    19    47 1   
    50    20    21 1   
    51    21    22 ar  
    52    22    23 ar  
    53    22    48 1   
    54    23    49 1   
    55    24    50 1   
@<TRIPOS>SUBSTRUCTURE
     1 PM7         1 TEMP              0 ****  ****    0 ROOT
