@<TRIPOS>MOLECULE
PM7
   50    55     1     0     0
SMALL
No Charge or Current Charge


@<TRIPOS>ATOM
      1 N           66.3230    22.9980    88.0120 ns         1 PM7      -0.512900
      2 C           65.7630    23.3240    89.2370 c          1 PM7       0.537000
      3 O           66.3250    24.0410    90.0530 o          1 PM7      -0.556000
      4 C1          64.3370    22.6100    89.3130 c5         1 PM7       0.108200
      5 C10         66.3030    19.6820    80.8570 ca         1 PM7      -0.092000
      6 C11         65.5910    18.9630    81.8420 ca         1 PM7      -0.128000
      7 C12         65.5370    19.5030    83.1330 ca         1 PM7      -0.043200
      8 C13         65.1200    19.8790    85.3520 cc         1 PM7      -0.044300
      9 C14         64.5900    19.7290    86.7680 c6         1 PM7       0.026200
     10 C15         63.0230    19.7810    86.6870 c3         1 PM7      -0.086100
     11 C16         64.9450    18.3080    87.3070 c3         1 PM7      -0.086100
     12 C17         64.1860    23.0090    86.8600 c6         1 PM7       0.166800
     13 C18         62.9540    24.3780    88.6250 c5         1 PM7       0.167800
     14 C19         62.4530    24.0270    90.0490 c5         1 PM7      -0.075400
     15 C2          64.5620    21.0740    89.0850 c6         1 PM7      -0.056400
     16 C20         63.5270    23.0240    90.5880 c5         1 PM7      -0.060400
     17 C3          65.2760    20.8220    87.6930 c6         1 PM7      -0.045700
     18 C4          65.5580    22.2150    87.0130 c6         1 PM7       0.117400
     19 C5          66.3570    22.0790    85.6910 c6         1 PM7       0.001800
     20 C6          65.8820    20.9240    84.8400 cd         1 PM7      -0.147400
     21 C7          66.1470    20.6860    83.4410 ca         1 PM7      -0.087800
     22 C8          66.8610    21.4270    82.4910 ca         1 PM7      -0.064000
     23 C9          66.9350    20.9090    81.1800 ca         1 PM7      -0.139000
     24 N1          64.9150    19.0050    84.2640 na         1 PM7      -0.218700
     25 N2          63.4360    23.0550    88.1880 n3         1 PM7      -0.732600
     26 H1          67.2330    23.3810    87.7850 hn         1 PM7       0.320500
     27 H2          66.3660    19.2920    79.8430 ha         1 PM7       0.110000
     28 H3          65.1030    18.0200    81.6050 ha         1 PM7       0.113000
     29 H4          62.5410    19.5150    87.6330 hc         1 PM7       0.040200
     30 H5          62.6390    20.7570    86.3860 hc         1 PM7       0.040200
     31 H6          62.6460    19.0620    85.9490 hc         1 PM7       0.040200
     32 H7          64.6040    18.1740    88.3410 hc         1 PM7       0.040200
     33 H8          64.4830    17.5170    86.7050 hc         1 PM7       0.040200
     34 H9          66.0280    18.1360    87.2920 hc         1 PM7       0.040200
     35 H10         64.4250    24.0310    86.5270 h1         1 PM7       0.053200
     36 H11         63.5700    22.5770    86.0620 h1         1 PM7       0.053200
     37 H12         63.7640    25.1220    88.6550 h1         1 PM7       0.040200
     38 H13         62.1510    24.7670    87.9840 h1         1 PM7       0.040200
     39 H14         62.3520    24.9160    90.6810 hc         1 PM7       0.049200
     40 H15         61.4660    23.5510    90.0020 hc         1 PM7       0.049200
     41 H16         63.6080    20.5480    89.1790 hc         1 PM7       0.057200
     42 H17         65.1930    20.6810    89.8940 hc         1 PM7       0.057200
     43 H18         63.0450    22.1610    91.0600 hc         1 PM7       0.060200
     44 H19         64.1610    23.4800    91.3570 hc         1 PM7       0.060200
     45 H20         66.2740    20.4260    87.9310 hc         1 PM7       0.059700
     46 H21         67.4190    21.9200    85.9250 hc         1 PM7       0.055200
     47 H22         66.3110    23.0210    85.1280 hc         1 PM7       0.055200
     48 H23         67.3420    22.3670    82.7530 ha         1 PM7       0.112000
     49 H24         67.4800    21.4540    80.4130 ha         1 PM7       0.111000
     50 H25         64.3870    18.1410    84.3010 hn         1 PM7       0.350000
@<TRIPOS>BOND
     1     1     2 1   
     2     1    18 1   
     3     1    26 1   
     4     2     3 2   
     5     2     4 1   
     6     4    15 1   
     7     4    16 1   
     8     4    25 1   
     9     5     6 ar  
    10     5    23 ar  
    11     5    27 1   
    12     6     7 ar  
    13     6    28 1   
    14     7    21 ar  
    15     7    24 1   
    16     8     9 1   
    17     8    20 2   
    18     8    24 1   
    19     9    10 1   
    20     9    11 1   
    21     9    17 1   
    22    10    29 1   
    23    10    30 1   
    24    10    31 1   
    25    11    32 1   
    26    11    33 1   
    27    11    34 1   
    28    12    18 1   
    29    12    25 1   
    30    12    35 1   
    31    12    36 1   
    32    13    14 1   
    33    13    25 1   
    34    13    37 1   
    35    13    38 1   
    36    14    16 1   
    37    14    39 1   
    38    14    40 1   
    39    15    17 1   
    40    15    41 1   
    41    15    42 1   
    42    16    43 1   
    43    16    44 1   
    44    17    18 1   
    45    17    45 1   
    46    18    19 1   
    47    19    20 1   
    48    19    46 1   
    49    19    47 1   
    50    20    21 1   
    51    21    22 ar  
    52    22    23 ar  
    53    22    48 1   
    54    23    49 1   
    55    24    50 1   
@<TRIPOS>SUBSTRUCTURE
     1 PM7         1 TEMP              0 ****  ****    0 ROOT
