@<TRIPOS>MOLECULE
PMA
   20    20     1     0     0
SMALL
No Charge or Current Charge


@<TRIPOS>ATOM
      1 C1           0.7130    -0.0600     1.2410 ca         1 PMA      -0.143850
      2 C2          -0.7000     0.0730     1.2400 ca         1 PMA      -0.143850
      3 C3           1.4010    -0.1280     0.0100 ca         1 PMA      -0.121500
      4 C4          -0.6980     0.0560    -1.2250 ca         1 PMA      -0.143850
      5 C5           0.7150    -0.0770    -1.2230 ca         1 PMA      -0.143850
      6 C6          -1.3860     0.1240     0.0070 ca         1 PMA      -0.121500
      7 C7          -1.4780     0.1570    -2.5200 c          1 PMA       0.742850
      8 C8           1.4960    -0.1970    -2.5160 c          1 PMA       0.742850
      9 C9           1.4930    -0.1620     2.5370 c          1 PMA       0.742850
     10 C10         -1.4810     0.1930     2.5330 c          1 PMA       0.742850
     11 O1           1.2400    -1.0870     3.2970 o          1 PMA      -0.789125
     12 O2           2.4310     0.6050     2.7120 o          1 PMA      -0.789125
     13 O3          -1.2280     1.1280     3.2800 o          1 PMA      -0.789125
     14 O4          -2.4190    -0.5710     2.7180 o          1 PMA      -0.789125
     15 O5          -1.2250     1.0820    -3.2800 o          1 PMA      -0.789125
     16 O6          -2.4160    -0.6090    -2.6950 o          1 PMA      -0.789125
     17 O7           1.2430    -1.1330    -3.2630 o          1 PMA      -0.789125
     18 O8           2.4340     0.5670    -2.7010 o          1 PMA      -0.789125
     19 H3           2.4820    -0.2430     0.0110 ha         1 PMA       0.081500
     20 H6          -2.4670     0.2380     0.0050 ha         1 PMA       0.081500
@<TRIPOS>BOND
     1     1     2 ar  
     2     1     3 ar  
     3     1     9 1   
     4     2     6 ar  
     5     2    10 1   
     6     3     5 ar  
     7     3    19 1   
     8     4     5 ar  
     9     4     6 ar  
    10     4     7 1   
    11     5     8 1   
    12     6    20 1   
    13     7    15 1   
    14     7    16 1   
    15     8    17 1   
    16     8    18 1   
    17     9    11 1   
    18     9    12 1   
    19    10    13 1   
    20    10    14 1   
@<TRIPOS>SUBSTRUCTURE
     1 PMA         1 TEMP              0 ****  ****    0 ROOT
