@<TRIPOS>MOLECULE
PMA
   20    20     1     0     0
SMALL
abcg2


@<TRIPOS>ATOM
      1 C1           0.6900    -0.0330     1.2240 ca         1 PMA      -0.143850
      2 C2          -0.7060     0.0510     1.2300 ca         1 PMA      -0.143850
      3 C3           1.3530    -0.0490     0.0010 ca         1 PMA      -0.121500
      4 C4          -0.7140     0.0470    -1.2170 ca         1 PMA      -0.143850
      5 C5           0.6820    -0.0210    -1.2220 ca         1 PMA      -0.143850
      6 C6          -1.3730     0.0730     0.0110 ca         1 PMA      -0.121500
      7 C7          -1.5260     0.1300    -2.4980 c          1 PMA       0.742850
      8 C8           1.5400    -0.1270    -2.4690 c          1 PMA       0.742850
      9 C9           1.5130    -0.2130     2.4850 c          1 PMA       0.742850
     10 C10         -1.4980     0.1920     2.5150 c          1 PMA       0.742850
     11 O1           1.2730    -1.2390     3.1500 o          1 PMA      -0.789125
     12 O2           2.4070     0.6290     2.7020 o          1 PMA      -0.789125
     13 O3          -0.9570     0.8310     3.4390 o          1 PMA      -0.789125
     14 O4          -2.6440    -0.3070     2.5330 o          1 PMA      -0.789125
     15 O5          -0.9100     0.4280    -3.5390 o          1 PMA      -0.789125
     16 O6          -2.7530    -0.0940    -2.4090 o          1 PMA      -0.789125
     17 O7           1.6110    -1.2550    -2.9920 o          1 PMA      -0.789125
     18 O8           2.1800     0.8930    -2.7900 o          1 PMA      -0.789125
     19 H3           2.4370    -0.1090     0.0010 ha         1 PMA       0.081500
     20 H6          -2.4540     0.1290     0.0120 ha         1 PMA       0.081500
@<TRIPOS>BOND
     1     1     2 ar  
     2     1     3 ar  
     3     1     9 1   
     4     2     6 ar  
     5     2    10 1   
     6     3     5 ar  
     7     3    19 1   
     8     4     5 ar  
     9     4     6 ar  
    10     4     7 1   
    11     5     8 1   
    12     6    20 1   
    13     7    15 1   
    14     7    16 1   
    15     8    17 1   
    16     8    18 1   
    17     9    11 1   
    18     9    12 1   
    19    10    13 1   
    20    10    14 1   
@<TRIPOS>SUBSTRUCTURE
     1 PMA         1 TEMP              0 ****  ****    0 ROOT
