@<TRIPOS>MOLECULE
PMD
   45    49     1     0     0
SMALL
abcg2


@<TRIPOS>ATOM
      1 C2B         -0.2610     0.5890     5.2350 ca         1 PMD       0.449900
      2 C4B         -0.2000    -1.3530     4.0360 ca         1 PMD       0.464900
      3 C4          -0.4700    -0.5850     2.8450 ca         1 PMD       0.025000
      4 C6B         -0.8140    -0.4260     0.6170 ca         1 PMD       0.243300
      5 C7B         -0.9510     0.9710     0.7790 ca         1 PMD       0.112900
      6 C8          -0.6080     0.8020     3.0160 ca         1 PMD       0.119000
      7 C9B         -0.9740    -1.0700    -0.7310 c3         1 PMD       0.025300
      8 C0          -0.7160    -0.4470    -3.0800 ca         1 PMD       0.026800
      9 C1          -1.2510    -1.6490    -3.5380 ca         1 PMD      -0.147500
     10 C2          -1.7680    -1.7520    -4.8210 ca         1 PMD      -0.090000
     11 C3          -1.7440    -0.6550    -5.6700 ca         1 PMD      -0.122500
     12 C10         -1.2000     0.5380    -5.2240 ca         1 PMD      -0.087500
     13 C5          -0.6720     0.6630    -3.9370 ca         1 PMD      -0.046500
     14 C6          -0.1100     1.9450    -3.5270 cc         1 PMD      -0.088000
     15 C12          0.9040     2.1450    -2.6740 cd         1 PMD      -0.088000
     16 C7           1.6710     1.1260    -1.9680 ca         1 PMD      -0.046500
     17 C11          3.0170     1.3720    -1.6860 ca         1 PMD      -0.087500
     18 C9           3.8010     0.4390    -1.0280 ca         1 PMD      -0.122500
     19 CA           3.2370    -0.7680    -0.6370 ca         1 PMD      -0.090000
     20 CB           1.9010    -1.0300    -0.9030 ca         1 PMD      -0.147500
     21 CC           1.1070    -0.0900    -1.5550 ca         1 PMD       0.026800
     22 N1          -0.5040     1.3960     4.2120 nb         1 PMD      -0.275000
     23 N2          -0.1660     1.1430     6.4510 nv         1 PMD      -1.067900
     24 N3          -0.1020    -0.7540     5.2020 nb         1 PMD      -0.355000
     25 N4          -0.0520    -2.6680     3.9420 nv         1 PMD      -1.058900
     26 N5          -0.5710    -1.1830     1.6580 nb         1 PMD      -0.613000
     27 N8          -0.8550     1.5740     1.9350 nb         1 PMD      -0.116000
     28 N0          -0.2780    -0.3060    -1.7460 na         1 PMD      -0.163600
     29 H7'1        -1.1430     1.5910    -0.0910 h4         1 PMD       0.046100
     30 H9'1        -0.6710    -2.1210    -0.6540 h1         1 PMD       0.055200
     31 H9'2        -2.0340    -1.0740    -0.9990 h1         1 PMD       0.055200
     32 H2'1        -2.1920    -2.6910    -5.1530 ha         1 PMD       0.113000
     33 H3'1        -2.1520    -0.7250    -6.6700 ha         1 PMD       0.115500
     34 H4'1        -1.1860     1.4010    -5.8790 ha         1 PMD       0.114000
     35 H6'1        -0.5040     2.8140    -4.0430 ha         1 PMD       0.107500
     36 H61          1.2610     3.1630    -2.5570 ha         1 PMD       0.107500
     37 H8'1         3.4490     2.3190    -1.9870 ha         1 PMD       0.114000
     38 H9B          4.8390     0.6540    -0.8160 ha         1 PMD       0.115500
     39 H10          3.8320    -1.5070    -0.1170 ha         1 PMD       0.113000
     40 H11          1.4760    -1.9710    -0.5800 ha         1 PMD       0.116000
     41 HN21         0.0840     0.5840     7.2460 hn         1 PMD       0.506500
     42 HN22        -0.2090     2.1410     6.5570 hn         1 PMD       0.506500
     43 HN41         0.1480    -3.2220     4.7570 hn         1 PMD       0.510500
     44 HN42        -0.1210    -3.1250     3.0490 hn         1 PMD       0.510500
     45 H1'1        -1.2780    -2.5100    -2.8840 ha         1 PMD       0.116000
@<TRIPOS>BOND
     1     1    22 ar  
     2     1    23 1   
     3     1    24 ar  
     4     2     3 ar  
     5     2    24 ar  
     6     2    25 1   
     7     3     6 ar  
     8     3    26 ar  
     9     4     5 ar  
    10     4     7 1   
    11     4    26 ar  
    12     5    27 ar  
    13     5    29 1   
    14     6    22 ar  
    15     6    27 ar  
    16     7    28 1   
    17     7    30 1   
    18     7    31 1   
    19     8     9 ar  
    20     8    13 ar  
    21     8    28 1   
    22     9    10 ar  
    23     9    45 1   
    24    10    11 ar  
    25    10    32 1   
    26    11    12 ar  
    27    11    33 1   
    28    12    13 ar  
    29    12    34 1   
    30    13    14 1   
    31    14    15 2   
    32    14    35 1   
    33    15    16 1   
    34    15    36 1   
    35    16    17 ar  
    36    16    21 ar  
    37    17    18 ar  
    38    17    37 1   
    39    18    19 ar  
    40    18    38 1   
    41    19    20 ar  
    42    19    39 1   
    43    20    21 ar  
    44    20    40 1   
    45    21    28 1   
    46    23    41 1   
    47    23    42 1   
    48    25    43 1   
    49    25    44 1   
@<TRIPOS>SUBSTRUCTURE
     1 PMD         1 TEMP              0 ****  ****    0 ROOT
