@<TRIPOS>MOLECULE
PMD
   45    49     1     0     0
SMALL
No Charge or Current Charge


@<TRIPOS>ATOM
      1 C2B         -0.3280     0.9000     5.0630 ca         1 PMD       0.449900
      2 C4B         -0.1550    -1.0870     4.0270 ca         1 PMD       0.464900
      3 C4          -0.5100    -0.4950     2.7800 ca         1 PMD       0.025000
      4 C6B         -0.9290    -0.5500     0.4970 ca         1 PMD       0.243300
      5 C7B         -1.1980     0.8300     0.5240 ca         1 PMD       0.112900
      6 C8          -0.7750     0.9130     2.8020 ca         1 PMD       0.119000
      7 C9B         -1.0010    -1.3450    -0.8020 c3         1 PMD       0.025300
      8 C0          -0.6470    -0.6030    -3.1430 ca         1 PMD       0.026800
      9 C1          -1.0730    -1.7090    -3.9040 ca         1 PMD      -0.147500
     10 C2          -1.6330    -1.5210    -5.1770 ca         1 PMD      -0.090000
     11 C3          -1.7740    -0.2240    -5.6900 ca         1 PMD      -0.122500
     12 C10         -1.3500     0.8800    -4.9320 ca         1 PMD      -0.087500
     13 C5          -0.7730     0.7060    -3.6570 ca         1 PMD      -0.046500
     14 C6          -0.3610     1.9140    -2.9300 cc         1 PMD      -0.088000
     15 C12          0.8010     1.9560    -2.1780 cd         1 PMD      -0.088000
     16 C7           1.6450     0.8380    -1.7100 ca         1 PMD      -0.046500
     17 C11          2.9580     1.1400    -1.2910 ca         1 PMD      -0.087500
     18 C9           3.8220     0.1290    -0.8400 ca         1 PMD      -0.122500
     19 CA           3.3780    -1.2000    -0.7840 ca         1 PMD      -0.090000
     20 CB           2.0630    -1.5090    -1.1640 ca         1 PMD      -0.147500
     21 CC           1.1920    -0.4980    -1.6170 ca         1 PMD       0.026800
     22 N1          -0.6760     1.5880     3.9690 nb         1 PMD      -0.275000
     23 N2          -0.2340     1.6060     6.2090 nv         1 PMD      -1.067900
     24 N3          -0.0580    -0.3980     5.1650 nb         1 PMD      -0.355000
     25 N4           0.1260    -2.4160     4.1580 nv         1 PMD      -1.058900
     26 N5          -0.5880    -1.2200     1.6240 nb         1 PMD      -0.613000
     27 N8          -1.1200     1.5510     1.6600 nb         1 PMD      -0.116000
     28 N0          -0.1330    -0.8200    -1.8770 na         1 PMD      -0.163600
     29 H7'1        -1.4810     1.3690    -0.3780 h4         1 PMD       0.046100
     30 H9'1        -0.7250    -2.3900    -0.6150 h1         1 PMD       0.055200
     31 H9'2        -2.0410    -1.3400    -1.1530 h1         1 PMD       0.055200
     32 H2'1        -1.9610    -2.3790    -5.7620 ha         1 PMD       0.113000
     33 H3'1        -2.2120    -0.0720    -6.6740 ha         1 PMD       0.115500
     34 H4'1        -1.4640     1.8810    -5.3430 ha         1 PMD       0.114000
     35 H6'1        -0.8600     2.8550    -3.1380 ha         1 PMD       0.107500
     36 H61          1.0930     2.9450    -1.8390 ha         1 PMD       0.107500
     37 H8'1         3.3190     2.1650    -1.3340 ha         1 PMD       0.114000
     38 H9B          4.8360     0.3760    -0.5340 ha         1 PMD       0.115500
     39 H10          4.0440    -1.9840    -0.4320 ha         1 PMD       0.113000
     40 H11          1.7140    -2.5370    -1.0900 ha         1 PMD       0.116000
     41 HN21         0.2540     1.1770     6.9910 hn         1 PMD       0.506500
     42 HN22        -0.1860     2.6200     6.1460 hn         1 PMD       0.506500
     43 HN41         0.6700    -2.7070     4.9650 hn         1 PMD       0.510500
     44 HN42         0.2740    -2.9330     3.2950 hn         1 PMD       0.510500
     45 H1'1        -0.9730    -2.7160    -3.5060 ha         1 PMD       0.116000
@<TRIPOS>BOND
     1     1    22 ar  
     2     1    23 1   
     3     1    24 ar  
     4     2     3 ar  
     5     2    24 ar  
     6     2    25 1   
     7     3     6 ar  
     8     3    26 ar  
     9     4     5 ar  
    10     4     7 1   
    11     4    26 ar  
    12     5    27 ar  
    13     5    29 1   
    14     6    22 ar  
    15     6    27 ar  
    16     7    28 1   
    17     7    30 1   
    18     7    31 1   
    19     8     9 ar  
    20     8    13 ar  
    21     8    28 1   
    22     9    10 ar  
    23     9    45 1   
    24    10    11 ar  
    25    10    32 1   
    26    11    12 ar  
    27    11    33 1   
    28    12    13 ar  
    29    12    34 1   
    30    13    14 1   
    31    14    15 2   
    32    14    35 1   
    33    15    16 1   
    34    15    36 1   
    35    16    17 ar  
    36    16    21 ar  
    37    17    18 ar  
    38    17    37 1   
    39    18    19 ar  
    40    18    38 1   
    41    19    20 ar  
    42    19    39 1   
    43    20    21 ar  
    44    20    40 1   
    45    21    28 1   
    46    23    41 1   
    47    23    42 1   
    48    25    43 1   
    49    25    44 1   
@<TRIPOS>SUBSTRUCTURE
     1 PMD         1 TEMP              0 ****  ****    0 ROOT
