@<TRIPOS>MOLECULE
PME
   38    38     1     0     0
SMALL
No Charge or Current Charge


@<TRIPOS>ATOM
      1 N1          -2.4600     0.0740    -1.7560 n8         1 PME      -0.998200
      2 C2          -0.9710     0.1720    -1.8750 c3         1 PME       0.113500
      3 C3          -0.6190     1.0010    -3.1350 c3         1 PME      -0.251400
      4 C4          -0.8350     0.1650    -4.4000 c          1 PME       0.715000
      5 O5           0.0830    -0.5430    -4.7820 o          1 PME      -0.734000
      6 O6          -1.9330     0.2040    -4.9340 o          1 PME      -0.734000
      7 C7          -0.2220     0.7130    -0.5940 c          1 PME       0.605100
      8 O8          -0.4850     1.7920    -0.0740 o          1 PME      -0.625100
      9 N9           0.7570    -0.1210    -0.0890 ns         1 PME      -0.495900
     10 C10          1.5600     0.1470     1.1270 c3         1 PME       0.063700
     11 C11          1.0250    -0.6340     2.3540 c3         1 PME      -0.039100
     12 C12         -0.4080    -0.2670     2.7210 ca         1 PME      -0.072300
     13 C13         -1.4810    -1.0890     2.3220 ca         1 PME      -0.098500
     14 C14         -2.8010    -0.7480     2.6630 ca         1 PME      -0.108500
     15 C15         -3.0580     0.4160     3.4060 ca         1 PME      -0.112000
     16 C16         -1.9920     1.2400     3.8080 ca         1 PME      -0.108500
     17 C17         -0.6720     0.8990     3.4660 ca         1 PME      -0.098500
     18 C18          3.0530    -0.1670     0.8530 c          1 PME       0.571100
     19 O19          3.9370     0.6810     0.8600 o          1 PME      -0.510000
     20 O20          3.2490    -1.4810     0.5040 os         1 PME      -0.417100
     21 C21          4.5860    -1.9070     0.1860 c3         1 PME       0.149900
     22 HN11        -2.8470    -0.0690    -2.6980 hn         1 PME       0.410000
     23 HN12        -2.8260     0.9960    -1.4900 hn         1 PME       0.410000
     24 H2          -0.5900    -0.8470    -2.0390 h1         1 PME       0.072700
     25 H31         -1.2630     1.8900    -3.1310 hc         1 PME       0.034700
     26 H32          0.4480     1.2400    -3.0400 hc         1 PME       0.034700
     27 HN9          0.9130    -0.9930    -0.5820 hn         1 PME       0.320500
     28 H10          1.5170     1.2200     1.3560 h1         1 PME       0.103700
     29 H111         1.1000    -1.7110     2.1580 hc         1 PME       0.057200
     30 H112         1.6830    -0.4380     3.2090 hc         1 PME       0.057200
     31 H13         -1.2920    -1.9910     1.7430 ha         1 PME       0.112000
     32 H14         -3.6250    -1.3860     2.3500 ha         1 PME       0.108500
     33 H15         -4.0790     0.6800     3.6700 ha         1 PME       0.106000
     34 H16         -2.1900     2.1420     4.3830 ha         1 PME       0.108500
     35 H17          0.1470     1.5430     3.7800 ha         1 PME       0.112000
     36 H211         4.5960    -2.9740    -0.0680 h1         1 PME       0.047033
     37 H212         4.9810    -1.3480    -0.6720 h1         1 PME       0.047033
     38 H213         5.2580    -1.7540     1.0410 h1         1 PME       0.047033
@<TRIPOS>BOND
     1     1     2 1   
     2     1    22 1   
     3     1    23 1   
     4     2     3 1   
     5     2     7 1   
     6     2    24 1   
     7     3     4 1   
     8     3    25 1   
     9     3    26 1   
    10     4     5 1   
    11     4     6 1   
    12     7     8 2   
    13     7     9 1   
    14     9    10 1   
    15     9    27 1   
    16    10    11 1   
    17    10    18 1   
    18    10    28 1   
    19    11    12 1   
    20    11    29 1   
    21    11    30 1   
    22    12    13 ar  
    23    12    17 ar  
    24    13    14 ar  
    25    13    31 1   
    26    14    15 ar  
    27    14    32 1   
    28    15    16 ar  
    29    15    33 1   
    30    16    17 ar  
    31    16    34 1   
    32    17    35 1   
    33    18    19 2   
    34    18    20 1   
    35    20    21 1   
    36    21    36 1   
    37    21    37 1   
    38    21    38 1   
@<TRIPOS>SUBSTRUCTURE
     1 PME         1 TEMP              0 ****  ****    0 ROOT
