@<TRIPOS>MOLECULE
PME
   38    38     1     0     0
SMALL
bcc


@<TRIPOS>ATOM
      1 N1          -1.7970     1.5040    -2.3530 n8         1 PME      -0.887800
      2 C2          -0.8620     0.4590    -1.9740 c3         1 PME       0.113500
      3 C3           0.1220     0.0440    -3.0730 c3         1 PME      -0.251400
      4 C4          -0.5250    -0.6240    -4.3030 c          1 PME       0.925600
      5 O5          -1.7430    -0.8910    -4.2470 o          1 PME      -0.839300
      6 O6           0.2410    -0.8560    -5.2580 o          1 PME      -0.839300
      7 C7          -0.0550     0.9280    -0.7780 c          1 PME       0.672100
      8 O8           0.3880     2.0640    -0.6940 o          1 PME      -0.625100
      9 N9           0.1750    -0.0070     0.1660 ns         1 PME      -0.562900
     10 C10          1.1050     0.2090     1.2380 c3         1 PME       0.063700
     11 C11          0.8590    -0.7930     2.3760 c3         1 PME      -0.039100
     12 C12         -0.4980    -0.6010     2.9940 ca         1 PME      -0.072300
     13 C13         -1.5630    -1.4370     2.6740 ca         1 PME      -0.116500
     14 C14         -2.8190    -1.2330     3.2320 ca         1 PME      -0.126500
     15 C15         -3.0250    -0.1850     4.1180 ca         1 PME      -0.130000
     16 C16         -1.9680     0.6570     4.4440 ca         1 PME      -0.126500
     17 C17         -0.7160     0.4480     3.8850 ca         1 PME      -0.116500
     18 C18          2.5640     0.1320     0.8030 c          1 PME       0.620100
     19 O19          3.4630     0.5780     1.4710 o          1 PME      -0.559000
     20 O20          2.7290    -0.4960    -0.3440 os         1 PME      -0.393900
     21 C21          4.0630    -0.6450    -0.8330 c3         1 PME       0.126700
     22 HN11        -2.2810     1.1850    -3.1830 hn         1 PME       0.354800
     23 HN12        -1.2780     2.3290    -2.6270 hn         1 PME       0.354800
     24 H2          -1.4450    -0.4210    -1.6880 h1         1 PME       0.072700
     25 H31          0.6830     0.9260    -3.4020 hc         1 PME       0.034700
     26 H32          0.8720    -0.6450    -2.6680 hc         1 PME       0.034700
     27 HN9         -0.1300    -0.9510    -0.0130 hn         1 PME       0.320500
     28 H10          0.9610     1.2170     1.6320 h1         1 PME       0.103700
     29 H111         0.9670    -1.8130     1.9970 hc         1 PME       0.057200
     30 H112         1.6340    -0.6520     3.1300 hc         1 PME       0.057200
     31 H13         -1.4100    -2.2610     1.9860 ha         1 PME       0.130000
     32 H14         -3.6370    -1.8940     2.9740 ha         1 PME       0.126500
     33 H15         -4.0030    -0.0250     4.5550 ha         1 PME       0.124000
     34 H16         -2.1180     1.4740     5.1370 ha         1 PME       0.126500
     35 H17          0.1050     1.1070     4.1460 ha         1 PME       0.130000
     36 H211         3.9760    -1.1760    -1.7760 h1         1 PME       0.047033
     37 H212         4.5320     0.3230    -1.0040 h1         1 PME       0.047033
     38 H213         4.6750    -1.2270    -0.1430 h1         1 PME       0.047033
@<TRIPOS>BOND
     1     1     2 1   
     2     1    22 1   
     3     1    23 1   
     4     2     3 1   
     5     2     7 1   
     6     2    24 1   
     7     3     4 1   
     8     3    25 1   
     9     3    26 1   
    10     4     5 1   
    11     4     6 1   
    12     7     8 2   
    13     7     9 1   
    14     9    10 1   
    15     9    27 1   
    16    10    11 1   
    17    10    18 1   
    18    10    28 1   
    19    11    12 1   
    20    11    29 1   
    21    11    30 1   
    22    12    13 ar  
    23    12    17 ar  
    24    13    14 ar  
    25    13    31 1   
    26    14    15 ar  
    27    14    32 1   
    28    15    16 ar  
    29    15    33 1   
    30    16    17 ar  
    31    16    34 1   
    32    17    35 1   
    33    18    19 2   
    34    18    20 1   
    35    20    21 1   
    36    21    36 1   
    37    21    37 1   
    38    21    38 1   
@<TRIPOS>SUBSTRUCTURE
     1 PME         1 TEMP              0 ****  ****    0 ROOT
