@<TRIPOS>MOLECULE
PMF
   18    18     1     0     0
SMALL
bcc


@<TRIPOS>ATOM
      1 C9           2.8580     1.1980     0.2070 ca         1 PMF      -0.125000
      2 C10          1.5720     1.2160    -0.3110 ca         1 PMF      -0.102500
      3 C5           3.4930    -0.0120     0.4510 ca         1 PMF      -0.110000
      4 C7           2.8410    -1.2060     0.1720 ca         1 PMF      -0.125000
      5 C6           1.5540    -1.1900    -0.3480 ca         1 PMF      -0.102500
      6 C8           0.9160     0.0220    -0.5970 ca         1 PMF      -0.106300
      7 C4          -0.4760     0.0410    -1.1510 c3         1 PMF      -0.171300
      8 O2          -1.5960    -1.2670     0.8880 o          1 PMF      -0.596300
      9 O1          -1.5820     1.2320     0.9650 o          1 PMF      -0.596300
     10 S1          -1.6260     0.0040     0.2150 s6         1 PMF       1.386700
     11 F1          -2.9990     0.0360    -0.6110 f          1 PMF      -0.268900
     12 HC9          3.3650     2.1310     0.4190 ha         1 PMF       0.138000
     13 H10C         1.0820     2.1620    -0.5060 ha         1 PMF       0.140500
     14 HC5          4.4970    -0.0250     0.8550 ha         1 PMF       0.136000
     15 HC7          3.3330    -2.1510     0.3580 ha         1 PMF       0.138000
     16 HC6          1.0520    -2.1230    -0.5700 ha         1 PMF       0.140500
     17 HC41        -0.6950    -0.8290    -1.7710 h1         1 PMF       0.111700
     18 HC42        -0.6890     0.9480    -1.7180 h1         1 PMF       0.111700
@<TRIPOS>BOND
     1     1     2 ar  
     2     1     3 ar  
     3     1    12 1   
     4     2     6 ar  
     5     2    13 1   
     6     3     4 ar  
     7     3    14 1   
     8     4     5 ar  
     9     4    15 1   
    10     5     6 ar  
    11     5    16 1   
    12     6     7 1   
    13     7    10 1   
    14     7    17 1   
    15     7    18 1   
    16     8    10 2   
    17     9    10 2   
    18    10    11 1   
@<TRIPOS>SUBSTRUCTURE
     1 PMF         1 TEMP              0 ****  ****    0 ROOT
