@<TRIPOS>MOLECULE
PMF
   18    18     1     0     0
SMALL
No Charge or Current Charge


@<TRIPOS>ATOM
      1 C9           2.9290     1.2120     0.1960 ca         1 PMF      -0.107000
      2 C10          1.6070     1.2270    -0.2840 ca         1 PMF      -0.084500
      3 C5           3.5850    -0.0120     0.4130 ca         1 PMF      -0.092000
      4 C7           2.9190    -1.2200     0.1480 ca         1 PMF      -0.107000
      5 C6           1.5970    -1.2060    -0.3320 ca         1 PMF      -0.084500
      6 C8           0.9350     0.0180    -0.5480 ca         1 PMF      -0.106300
      7 C4          -0.5010     0.0340    -1.0730 c3         1 PMF      -0.282100
      8 O2          -1.7840    -1.2810     0.8990 o          1 PMF      -0.525500
      9 O1          -1.7740     1.2810     0.9500 o          1 PMF      -0.525500
     10 S1          -1.7910     0.0140     0.2010 s6         1 PMF       1.355900
     11 F1          -3.1130     0.0390    -0.7740 f          1 PMF      -0.268900
     12 HC9          3.4440     2.1480     0.4000 ha         1 PMF       0.120000
     13 H10C         1.1080     2.1790    -0.4490 ha         1 PMF       0.122500
     14 HC5          4.6080    -0.0230     0.7840 ha         1 PMF       0.118000
     15 HC7          3.4260    -2.1680     0.3130 ha         1 PMF       0.120000
     16 HC6          1.0900    -2.1470    -0.5350 ha         1 PMF       0.122500
     17 HC41        -0.6950    -0.8430    -1.6990 h1         1 PMF       0.111700
     18 HC42        -0.6880     0.9370    -1.6630 h1         1 PMF       0.111700
@<TRIPOS>BOND
     1     1     2 ar  
     2     1     3 ar  
     3     1    12 1   
     4     2     6 ar  
     5     2    13 1   
     6     3     4 ar  
     7     3    14 1   
     8     4     5 ar  
     9     4    15 1   
    10     5     6 ar  
    11     5    16 1   
    12     6     7 1   
    13     7    10 1   
    14     7    17 1   
    15     7    18 1   
    16     8    10 2   
    17     9    10 2   
    18    10    11 1   
@<TRIPOS>SUBSTRUCTURE
     1 PMF         1 TEMP              0 ****  ****    0 ROOT
