@<TRIPOS>MOLECULE
PMI
   24    25     1     0     0
SMALL
abcg2


@<TRIPOS>ATOM
      1 O14         -0.4590    -6.9320    -0.5830 o          1 PMI      -0.921833
      2 P10          0.9120    -6.3270    -0.2450 p5         1 PMI       1.288500
      3 O12          0.8800    -5.3520     0.9350 o          1 PMI      -0.921833
      4 O13          2.0350    -7.3770    -0.1560 o          1 PMI      -0.921833
      5 C8           1.3960    -5.2960    -1.7400 c5         1 PMI      -0.120800
      6 C9           0.3060    -4.2540    -2.0590 c5         1 PMI      -0.012100
      7 C2           0.7300    -3.0250    -1.3140 ca         1 PMI      -0.016300
      8 N11          1.5900    -6.2060    -2.8620 n8         1 PMI      -0.955200
      9 C7           2.6360    -4.4340    -1.3910 c5         1 PMI      -0.012100
     10 C1           2.0680    -3.1260    -0.9350 ca         1 PMI      -0.016300
     11 C6           2.6890    -2.0800    -0.2730 ca         1 PMI      -0.118000
     12 C5           1.9600    -0.9300     0.0260 ca         1 PMI      -0.148000
     13 C4           0.6240    -0.8330    -0.3450 ca         1 PMI      -0.148000
     14 C3           0.0050    -1.8810    -1.0230 ca         1 PMI      -0.118000
     15 H9'1        -0.6940    -4.6060    -1.7920 hc         1 PMI       0.031700
     16 H9'2         0.2820    -4.0390    -3.1360 hc         1 PMI       0.031700
     17 H111         2.0920    -5.7310    -3.6070 hn         1 PMI       0.357000
     18 H112         2.1900    -6.9620    -2.5540 hn         1 PMI       0.357000
     19 H7'1         3.2510    -4.2720    -2.2890 hc         1 PMI       0.031700
     20 H7'2         3.2890    -4.9080    -0.6550 hc         1 PMI       0.031700
     21 H6           3.7310    -2.1510     0.0180 ha         1 PMI       0.085000
     22 H5           2.4350    -0.1100     0.5500 ha         1 PMI       0.066000
     23 H4           0.0620     0.0620    -0.1050 ha         1 PMI       0.066000
     24 H3          -1.0360    -1.7960    -1.3140 ha         1 PMI       0.085000
@<TRIPOS>BOND
     1     1     2 1   
     2     2     3 1   
     3     2     4 1   
     4     2     5 1   
     5     5     6 1   
     6     5     8 1   
     7     5     9 1   
     8     6     7 1   
     9     6    15 1   
    10     6    16 1   
    11     7    10 ar  
    12     7    14 ar  
    13     8    17 1   
    14     8    18 1   
    15     9    10 1   
    16     9    19 1   
    17     9    20 1   
    18    10    11 ar  
    19    11    12 ar  
    20    11    21 1   
    21    12    13 ar  
    22    12    22 1   
    23    13    14 ar  
    24    13    23 1   
    25    14    24 1   
@<TRIPOS>SUBSTRUCTURE
     1 PMI         1 TEMP              0 ****  ****    0 ROOT
