@<TRIPOS>MOLECULE
PMI
   24    25     1     0     0
SMALL
No Charge or Current Charge


@<TRIPOS>ATOM
      1 O14         -0.3940    -7.1000    -0.5410 o          1 PMI      -0.921833
      2 P10          0.8920    -6.4050    -0.2320 p5         1 PMI       1.288500
      3 O12          0.7470    -5.5400     0.9760 o          1 PMI      -0.921833
      4 O13          1.9810    -7.4110    -0.0360 o          1 PMI      -0.921833
      5 C8           1.3910    -5.3040    -1.7820 c5         1 PMI      -0.120800
      6 C9           0.2130    -4.2520    -2.0070 c5         1 PMI      -0.012100
      7 C2           0.7260    -3.0210    -1.3100 ca         1 PMI      -0.016300
      8 N11          1.6750    -6.0880    -3.0480 n8         1 PMI      -0.955200
      9 C7           2.6610    -4.4440    -1.3500 c5         1 PMI      -0.012100
     10 C1           2.0540    -3.1250    -0.9540 ca         1 PMI      -0.016300
     11 C6           2.7130    -2.0640    -0.3090 ca         1 PMI      -0.118000
     12 C5           1.9950    -0.8860    -0.0230 ca         1 PMI      -0.148000
     13 C4           0.6370    -0.7810    -0.3870 ca         1 PMI      -0.148000
     14 C3          -0.0050    -1.8530    -1.0360 ca         1 PMI      -0.118000
     15 H9'1        -0.7460    -4.5900    -1.5990 hc         1 PMI       0.031700
     16 H9'2         0.0450    -4.0450    -3.0700 hc         1 PMI       0.031700
     17 H111         2.4020    -5.6120    -3.5930 hn         1 PMI       0.357000
     18 H112         2.1060    -6.9840    -2.7860 hn         1 PMI       0.357000
     19 H7'1         3.3650    -4.3030    -2.1790 hc         1 PMI       0.031700
     20 H7'2         3.2290    -4.9020    -0.5320 hc         1 PMI       0.031700
     21 H6           3.7610    -2.1510    -0.0350 ha         1 PMI       0.085000
     22 H5           2.4900    -0.0570     0.4760 ha         1 PMI       0.066000
     23 H4           0.0860     0.1300    -0.1680 ha         1 PMI       0.066000
     24 H3          -1.0500    -1.7770    -1.3240 ha         1 PMI       0.085000
@<TRIPOS>BOND
     1     1     2 1   
     2     2     3 1   
     3     2     4 1   
     4     2     5 1   
     5     5     6 1   
     6     5     8 1   
     7     5     9 1   
     8     6     7 1   
     9     6    15 1   
    10     6    16 1   
    11     7    10 ar  
    12     7    14 ar  
    13     8    17 1   
    14     8    18 1   
    15     9    10 1   
    16     9    19 1   
    17     9    20 1   
    18    10    11 ar  
    19    11    12 ar  
    20    11    21 1   
    21    12    13 ar  
    22    12    22 1   
    23    13    14 ar  
    24    13    23 1   
    25    14    24 1   
@<TRIPOS>SUBSTRUCTURE
     1 PMI         1 TEMP              0 ****  ****    0 ROOT
