@<TRIPOS>MOLECULE
PMJ
   68    69     1     0     0
SMALL
No Charge or Current Charge


@<TRIPOS>ATOM
      1 C7           2.5160     0.8800     0.8790 c3         1 PMJ      -0.243100
      2 S8           2.4790     0.8960    -0.9240 s6         1 PMJ       1.173100
      3 C4           2.2350     2.2330     1.5230 ca         1 PMJ      -0.086300
      4 C5           3.2970     3.0990     1.8460 ca         1 PMJ      -0.084500
      5 C6           3.0370     4.3460     2.4420 ca         1 PMJ      -0.109500
      6 C1           1.7150     4.7320     2.7190 ca         1 PMJ      -0.098000
      7 C2           0.6520     3.8690     2.4000 ca         1 PMJ      -0.109500
      8 C3           0.9110     2.6220     1.8040 ca         1 PMJ      -0.084500
      9 O10          3.5820     1.7260    -1.4100 o          1 PMJ      -0.531000
     10 O9           1.1140     1.1060    -1.4080 o          1 PMJ      -0.531000
     11 N11          2.8990    -0.6700    -1.3140 n7         1 PMJ      -0.883300
     12 C12          1.9910    -1.8120    -0.9790 c3         1 PMJ       0.146500
     13 C30          2.7590    -3.1410    -1.1940 c3         1 PMJ      -0.071400
     14 C31          3.9650    -3.3350    -0.2410 c3         1 PMJ      -0.084400
     15 C32          4.6840    -4.6820    -0.4510 c3         1 PMJ       0.212800
     16 N33          5.8120    -4.8150     0.4790 nu         1 PMJ      -0.892400
     17 C34          6.5780    -5.8790     0.4780 c2         1 PMJ       0.786100
     18 N35          7.5190    -5.5450    -0.3470 nv         1 PMJ      -1.067200
     19 N37          6.8090    -6.3910     1.5800 n2         1 PMJ      -0.896100
     20 C13          0.6500    -1.8170    -1.7980 c          1 PMJ       0.579100
     21 O14          0.6240    -1.8180    -3.0240 o          1 PMJ      -0.609100
     22 N15         -0.5110    -1.8010    -1.0530 ns         1 PMJ      -0.478900
     23 C16         -1.8740    -1.7610    -1.6270 c3         1 PMJ       0.017000
     24 C17         -2.9590    -1.6620    -0.5310 c          1 PMJ       0.590100
     25 O18         -2.6970    -1.6400     0.6660 o          1 PMJ      -0.601100
     26 N19         -4.2520    -1.6050    -1.0010 ns         1 PMJ      -0.503900
     27 C20         -5.4400    -1.4770    -0.1550 c3         1 PMJ       0.154300
     28 C21         -5.8570    -0.0220     0.0010 ca         1 PMJ      -0.090300
     29 C26         -5.3220     0.7640     1.0370 ca         1 PMJ      -0.103500
     30 C25         -5.7040     2.1090     1.1830 ca         1 PMJ      -0.076500
     31 C24         -6.6220     2.7030     0.2830 ca         1 PMJ      -0.138900
     32 C27         -7.0670     4.1280     0.4450 ce         1 PMJ       0.659800
     33 N28         -8.1200     4.5950    -0.0860 n2         1 PMJ      -0.826100
     34 N29         -6.2520     4.9800     1.1050 nv         1 PMJ      -1.076200
     35 C23         -7.1700     1.8960    -0.7420 ca         1 PMJ      -0.076500
     36 C22         -6.7850     0.5520    -0.8860 ca         1 PMJ      -0.103500
     37 H7           3.5120     0.5170     1.1530 h1         1 PMJ       0.100200
     38 H7A          1.7700     0.1470     1.1990 h1         1 PMJ       0.100200
     39 H5           4.3240     2.8090     1.6340 ha         1 PMJ       0.119500
     40 H6           3.8610     5.0120     2.6880 ha         1 PMJ       0.116500
     41 H1           1.5140     5.6960     3.1800 ha         1 PMJ       0.114000
     42 H2          -0.3720     4.1660     2.6140 ha         1 PMJ       0.116500
     43 H3           0.0830     1.9610     1.5600 ha         1 PMJ       0.119500
     44 HN11         2.9680    -0.5910    -2.3290 hn         1 PMJ       0.504000
     45 H12          1.7160    -1.7770     0.0830 h1         1 PMJ       0.078700
     46 H30          2.0620    -3.9760    -1.0470 hc         1 PMJ       0.055200
     47 H30A         3.1020    -3.2000    -2.2350 hc         1 PMJ       0.055200
     48 H31          4.6860    -2.5220    -0.3910 hc         1 PMJ       0.054700
     49 H31A         3.6170    -3.2690     0.7970 hc         1 PMJ       0.054700
     50 H32          3.9710    -5.5030    -0.2910 h1         1 PMJ       0.037700
     51 H32A         5.0390    -4.7430    -1.4890 h1         1 PMJ       0.037700
     52 HN33         5.5730    -4.6170     1.4430 hn         1 PMJ       0.480000
     53 HN35         7.2260    -4.6640    -0.7390 hn         1 PMJ       0.454500
     54 HN3A         8.4110    -5.4760     0.1190 hn         1 PMJ       0.454500
     55 HN37         7.6650    -6.9470     1.4800 hn         1 PMJ       0.380400
     56 HN15        -0.4210    -1.7900    -0.0410 hn         1 PMJ       0.346500
     57 H16         -1.9700    -0.8890    -2.2870 h1         1 PMJ       0.071200
     58 H16A        -2.0550    -2.6700    -2.2140 h1         1 PMJ       0.071200
     59 HN19        -4.3780    -1.6260    -2.0060 hn         1 PMJ       0.321500
     60 H20         -6.2590    -2.0480    -0.6130 h1         1 PMJ       0.058200
     61 H20A        -5.2450    -1.9190     0.8310 h1         1 PMJ       0.058200
     62 H26         -4.6100     0.3300     1.7360 ha         1 PMJ       0.113500
     63 H25         -5.2870     2.6800     2.0090 ha         1 PMJ       0.128000
     64 HN28        -8.3070     5.5120     0.3340 hn         1 PMJ       0.370400
     65 HN29        -5.3040     4.6470     1.2350 hn         1 PMJ       0.461500
     66 HN2A        -6.3320     5.9590     0.8550 hn         1 PMJ       0.461500
     67 H23         -7.8920     2.3140    -1.4400 ha         1 PMJ       0.128000
     68 H22         -7.2120    -0.0440    -1.6890 ha         1 PMJ       0.113500
@<TRIPOS>BOND
     1     1     2 1   
     2     1     3 1   
     3     1    37 1   
     4     1    38 1   
     5     2     9 2   
     6     2    10 2   
     7     2    11 1   
     8     3     4 ar  
     9     3     8 ar  
    10     4     5 ar  
    11     4    39 1   
    12     5     6 ar  
    13     5    40 1   
    14     6     7 ar  
    15     6    41 1   
    16     7     8 ar  
    17     7    42 1   
    18     8    43 1   
    19    11    12 1   
    20    11    44 1   
    21    12    13 1   
    22    12    20 1   
    23    12    45 1   
    24    13    14 1   
    25    13    46 1   
    26    13    47 1   
    27    14    15 1   
    28    14    48 1   
    29    14    49 1   
    30    15    16 1   
    31    15    50 1   
    32    15    51 1   
    33    16    17 1   
    34    16    52 1   
    35    17    18 1   
    36    17    19 2   
    37    18    53 1   
    38    18    54 1   
    39    19    55 1   
    40    20    21 2   
    41    20    22 1   
    42    22    23 1   
    43    22    56 1   
    44    23    24 1   
    45    23    57 1   
    46    23    58 1   
    47    24    25 2   
    48    24    26 1   
    49    26    27 1   
    50    26    59 1   
    51    27    28 1   
    52    27    60 1   
    53    27    61 1   
    54    28    29 ar  
    55    28    36 ar  
    56    29    30 ar  
    57    29    62 1   
    58    30    31 ar  
    59    30    63 1   
    60    31    32 1   
    61    31    35 ar  
    62    32    33 2   
    63    32    34 1   
    64    33    64 1   
    65    34    65 1   
    66    34    66 1   
    67    35    36 ar  
    68    35    67 1   
    69    36    68 1   
@<TRIPOS>SUBSTRUCTURE
     1 PMJ         1 TEMP              0 ****  ****    0 ROOT
