@<TRIPOS>MOLECULE
PMJ
   68    69     1     0     0
SMALL
bcc


@<TRIPOS>ATOM
      1 C7           3.5810     1.6360     0.5280 c3         1 PMJ      -0.132300
      2 S8           2.7270     1.3000    -1.0160 s6         1 PMJ       1.203900
      3 C4           3.4830     3.0940     0.8530 ca         1 PMJ      -0.086300
      4 C5           4.4320     3.9860     0.3630 ca         1 PMJ      -0.102500
      5 C6           4.3320     5.3410     0.6450 ca         1 PMJ      -0.127500
      6 C1           3.2760     5.8160     1.4120 ca         1 PMJ      -0.116000
      7 C2           2.3240     4.9310     1.9000 ca         1 PMJ      -0.127500
      8 C3           2.4250     3.5760     1.6180 ca         1 PMJ      -0.102500
      9 O10          3.4630     1.9290    -2.1010 o          1 PMJ      -0.601800
     10 O9           1.3190     1.6250    -0.8240 o          1 PMJ      -0.601800
     11 N11          2.9060    -0.3390    -1.1680 n7         1 PMJ      -0.828100
     12 C12          1.7840    -1.1940    -0.8280 c3         1 PMJ       0.146500
     13 C30          2.2610    -2.6460    -0.7370 c3         1 PMJ      -0.071400
     14 C31          3.3350    -2.8570     0.3210 c3         1 PMJ      -0.084400
     15 C32          3.7390    -4.3210     0.4090 c3         1 PMJ       0.212800
     16 N33          4.7550    -4.4940     1.4300 nu         1 PMJ      -0.837200
     17 C34          5.3570    -5.7030     1.6890 c2         1 PMJ       0.786100
     18 N35          5.4570    -6.5520     0.6120 nv         1 PMJ      -0.956800
     19 N37          5.7540    -5.9570     2.8830 n2         1 PMJ      -0.896100
     20 C13          0.6740    -1.0840    -1.8750 c          1 PMJ       0.646100
     21 O14          0.9290    -0.8410    -3.0440 o          1 PMJ      -0.609100
     22 N15         -0.5590    -1.3280    -1.4240 ns         1 PMJ      -0.545900
     23 C16         -1.7070    -1.3180    -2.2870 c3         1 PMJ       0.017000
     24 C17         -2.9620    -1.5770    -1.4730 c          1 PMJ       0.657100
     25 O18         -2.9310    -1.7580    -0.2660 o          1 PMJ      -0.601100
     26 N19         -4.0940    -1.5900    -2.1880 ns         1 PMJ      -0.570900
     27 C20         -5.3850    -1.7920    -1.5730 c3         1 PMJ       0.154300
     28 C21         -5.8210    -0.6420    -0.6990 ca         1 PMJ      -0.090300
     29 C26         -6.3680    -0.8790     0.5540 ca         1 PMJ      -0.121500
     30 C25         -6.8020     0.1700     1.3530 ca         1 PMJ      -0.094500
     31 C24         -6.6940     1.4870     0.9130 ca         1 PMJ      -0.138900
     32 C27         -7.1540     2.6340     1.7430 ce         1 PMJ       0.659800
     33 N28         -7.5010     3.7150     1.1570 n2         1 PMJ      -0.826100
     34 N29         -7.2100     2.3950     3.0870 nv         1 PMJ      -0.965800
     35 C23         -6.1510     1.7240    -0.3490 ca         1 PMJ      -0.094500
     36 C22         -5.7180     0.6750    -1.1410 ca         1 PMJ      -0.121500
     37 H7           4.6100     1.3050     0.3880 h1         1 PMJ       0.100200
     38 H7A          3.1150     1.0080     1.2900 h1         1 PMJ       0.100200
     39 H5           5.2620     3.6200    -0.2280 ha         1 PMJ       0.137500
     40 H6           5.0790     6.0260     0.2650 ha         1 PMJ       0.134500
     41 H1           3.1980     6.8730     1.6340 ha         1 PMJ       0.132000
     42 H2           1.5000     5.2950     2.5000 ha         1 PMJ       0.134500
     43 H3           1.6830     2.8900     2.0080 ha         1 PMJ       0.137500
     44 HN11         3.3620    -0.5800    -2.0430 hn         1 PMJ       0.448800
     45 H12          1.4050    -0.8970     0.1540 h1         1 PMJ       0.078700
     46 H30          1.3940    -3.2710    -0.5100 hc         1 PMJ       0.055200
     47 H30A         2.6290    -2.9660    -1.7160 hc         1 PMJ       0.055200
     48 H31          4.2160    -2.2550     0.0930 hc         1 PMJ       0.054700
     49 H31A         2.9600    -2.5190     1.2930 hc         1 PMJ       0.054700
     50 H32          2.8540    -4.9400     0.6020 h1         1 PMJ       0.037700
     51 H32A         4.1310    -4.6260    -0.5630 h1         1 PMJ       0.037700
     52 HN33         4.5560    -4.0020     2.2890 hn         1 PMJ       0.424800
     53 HN35         5.5500    -6.1350    -0.3000 hn         1 PMJ       0.399300
     54 HN3A         6.0920    -7.3240     0.7360 hn         1 PMJ       0.399300
     55 HN37         6.2630    -6.8330     2.9140 hn         1 PMJ       0.380400
     56 HN15        -0.7250    -1.4840    -0.4400 hn         1 PMJ       0.346500
     57 H16         -1.8040    -0.3550    -2.7970 h1         1 PMJ       0.071200
     58 H16A        -1.6220    -2.0800    -3.0670 h1         1 PMJ       0.071200
     59 HN19        -4.0540    -1.4390    -3.1830 hn         1 PMJ       0.321500
     60 H20         -6.1030    -1.9270    -2.3830 h1         1 PMJ       0.058200
     61 H20A        -5.3860    -2.7170    -0.9940 h1         1 PMJ       0.058200
     62 H26         -6.4610    -1.8950     0.9170 ha         1 PMJ       0.131500
     63 H25         -7.2370    -0.0570     2.3180 ha         1 PMJ       0.146000
     64 HN28        -7.7620     4.4280     1.8320 hn         1 PMJ       0.370400
     65 HN29        -6.5710     1.7240     3.4810 hn         1 PMJ       0.406300
     66 HN2A        -7.3850     3.1840     3.6890 hn         1 PMJ       0.406300
     67 H23         -6.0640     2.7410    -0.7060 ha         1 PMJ       0.146000
     68 H22         -5.2900     0.8900    -2.1130 ha         1 PMJ       0.131500
@<TRIPOS>BOND
     1     1     2 1   
     2     1     3 1   
     3     1    37 1   
     4     1    38 1   
     5     2     9 2   
     6     2    10 2   
     7     2    11 1   
     8     3     4 ar  
     9     3     8 ar  
    10     4     5 ar  
    11     4    39 1   
    12     5     6 ar  
    13     5    40 1   
    14     6     7 ar  
    15     6    41 1   
    16     7     8 ar  
    17     7    42 1   
    18     8    43 1   
    19    11    12 1   
    20    11    44 1   
    21    12    13 1   
    22    12    20 1   
    23    12    45 1   
    24    13    14 1   
    25    13    46 1   
    26    13    47 1   
    27    14    15 1   
    28    14    48 1   
    29    14    49 1   
    30    15    16 1   
    31    15    50 1   
    32    15    51 1   
    33    16    17 1   
    34    16    52 1   
    35    17    18 1   
    36    17    19 2   
    37    18    53 1   
    38    18    54 1   
    39    19    55 1   
    40    20    21 2   
    41    20    22 1   
    42    22    23 1   
    43    22    56 1   
    44    23    24 1   
    45    23    57 1   
    46    23    58 1   
    47    24    25 2   
    48    24    26 1   
    49    26    27 1   
    50    26    59 1   
    51    27    28 1   
    52    27    60 1   
    53    27    61 1   
    54    28    29 ar  
    55    28    36 ar  
    56    29    30 ar  
    57    29    62 1   
    58    30    31 ar  
    59    30    63 1   
    60    31    32 1   
    61    31    35 ar  
    62    32    33 2   
    63    32    34 1   
    64    33    64 1   
    65    34    65 1   
    66    34    66 1   
    67    35    36 ar  
    68    35    67 1   
    69    36    68 1   
@<TRIPOS>SUBSTRUCTURE
     1 PMJ         1 TEMP              0 ****  ****    0 ROOT
