@<TRIPOS>MOLECULE
PML
   21    20     1     0     0
SMALL
bcc


@<TRIPOS>ATOM
      1 C1           0.0830    -0.0120     3.8710 c          1 PML       0.924600
      2 O11          1.3100     0.2060     3.8330 o          1 PML      -0.862800
      3 O12         -0.5960    -0.2190     4.9000 o          1 PML      -0.862800
      4 C2          -0.6910    -0.0120     2.5410 c3         1 PML      -0.198900
      5 C3           0.1510     0.0130     1.2750 c3         1 PML      -0.057400
      6 C4          -0.6910     0.0080     0.0040 c3         1 PML      -0.083400
      7 C5           0.1430     0.0080    -1.2720 c3         1 PML      -0.057400
      8 C6          -0.7060     0.0130    -2.5330 c3         1 PML      -0.198900
      9 C7           0.0590    -0.0080    -3.8670 c          1 PML       0.924600
     10 O71          1.2890    -0.2110    -3.8320 o          1 PML      -0.862800
     11 O72         -0.6280     0.1680    -4.8960 o          1 PML      -0.862800
     12 HC21        -1.3550    -0.8830     2.5260 hc         1 PML       0.009200
     13 HC22        -1.3650     0.8550     2.5460 hc         1 PML       0.009200
     14 HC31         0.7960     0.8970     1.2760 hc         1 PML       0.034700
     15 HC32         0.8250    -0.8490     1.2620 hc         1 PML       0.034700
     16 HC41        -1.3500    -0.8690     0.0070 hc         1 PML       0.010200
     17 HC42        -1.3570     0.8790     0.0060 hc         1 PML       0.010200
     18 HC51         0.8060     0.8790    -1.2670 hc         1 PML       0.034700
     19 HC52         0.8000    -0.8670    -1.2720 hc         1 PML       0.034700
     20 HC61        -1.3790    -0.8540    -2.5200 hc         1 PML       0.009200
     21 HC62        -1.3720     0.8840    -2.5270 hc         1 PML       0.009200
@<TRIPOS>BOND
     1     1     2 1   
     2     1     3 1   
     3     1     4 1   
     4     4     5 1   
     5     4    12 1   
     6     4    13 1   
     7     5     6 1   
     8     5    14 1   
     9     5    15 1   
    10     6     7 1   
    11     6    16 1   
    12     6    17 1   
    13     7     8 1   
    14     7    18 1   
    15     7    19 1   
    16     8     9 1   
    17     8    20 1   
    18     8    21 1   
    19     9    10 1   
    20     9    11 1   
@<TRIPOS>SUBSTRUCTURE
     1 PML         1 TEMP              0 ****  ****    0 ROOT
