@<TRIPOS>MOLECULE
PML
   21    20     1     0     0
SMALL
No Charge or Current Charge


@<TRIPOS>ATOM
      1 C1           0.1590     0.1710     3.8210 c          1 PML       0.714000
      2 O11          0.5150     1.2670     4.2250 o          1 PML      -0.757500
      3 O12          0.5280    -0.8820     4.3180 o          1 PML      -0.757500
      4 C2          -0.7610     0.1110     2.5860 c3         1 PML      -0.198900
      5 C3           0.0850     0.0600     1.2900 c3         1 PML      -0.057400
      6 C4          -0.7720    -0.0020     0.0050 c3         1 PML      -0.083400
      7 C5           0.0760    -0.0530    -1.2870 c3         1 PML      -0.057400
      8 C6          -0.7800    -0.1150    -2.5760 c3         1 PML      -0.198900
      9 C7           0.1310    -0.1630    -3.8190 c          1 PML       0.714000
     10 O71          0.4970    -1.2560    -4.2250 o          1 PML      -0.757500
     11 O72          0.4840     0.8940    -4.3190 o          1 PML      -0.757500
     12 HC21        -1.3550    -0.8120     2.5930 hc         1 PML       0.009200
     13 HC22        -1.3660     1.0230     2.5130 hc         1 PML       0.009200
     14 HC31         0.7330     0.9440     1.2480 hc         1 PML       0.034700
     15 HC32         0.7440    -0.8170     1.3250 hc         1 PML       0.034700
     16 HC41        -1.4180    -0.8870     0.0460 hc         1 PML       0.010200
     17 HC42        -1.4300     0.8750    -0.0310 hc         1 PML       0.010200
     18 HC51         0.7240     0.8310    -1.3270 hc         1 PML       0.034700
     19 HC52         0.7350    -0.9290    -1.2500 hc         1 PML       0.034700
     20 HC61        -1.3730    -1.0350    -2.4980 hc         1 PML       0.009200
     21 HC62        -1.3850     0.8010    -2.5780 hc         1 PML       0.009200
@<TRIPOS>BOND
     1     1     2 1   
     2     1     3 1   
     3     1     4 1   
     4     4     5 1   
     5     4    12 1   
     6     4    13 1   
     7     5     6 1   
     8     5    14 1   
     9     5    15 1   
    10     6     7 1   
    11     6    16 1   
    12     6    17 1   
    13     7     8 1   
    14     7    18 1   
    15     7    19 1   
    16     8     9 1   
    17     8    20 1   
    18     8    21 1   
    19     9    10 1   
    20     9    11 1   
@<TRIPOS>SUBSTRUCTURE
     1 PML         1 TEMP              0 ****  ****    0 ROOT
