@<TRIPOS>MOLECULE
PMN
   58    62     1     0     0
SMALL
No Charge or Current Charge


@<TRIPOS>ATOM
      1 O16          3.3480    -1.6050    -1.6730 os         1 PMN      -0.449000
      2 O19          2.2100     2.9220     2.2730 o          1 PMN      -0.508100
      3 O20         -1.9600     2.2160     1.0090 o          1 PMN      -0.570100
      4 O32         -5.6640    -1.2950     2.4580 o          1 PMN      -0.696000
      5 O33         -7.4890    -1.3030     1.3190 o          1 PMN      -0.696000
      6 N28         -2.1070     0.6960    -0.7220 ns         1 PMN      -0.147000
      7 C1          -1.4120     1.4890     0.1870 c          1 PMN       0.597100
      8 C2           0.1160     1.4440     0.0350 c3         1 PMN      -0.164400
      9 C3           0.7780     0.6520     1.1980 c3         1 PMN      -0.062400
     10 C4           2.3550     0.6940     1.2970 c6         1 PMN      -0.121000
     11 C5           2.8320     2.1580     1.5440 c          1 PMN       0.564300
     12 C6           4.1020     2.6190     0.9010 ce         1 PMN      -0.297200
     13 C7           4.9360     1.9050     0.1040 c2         1 PMN      -0.140200
     14 C8           4.5740     0.4550    -0.2030 c5         1 PMN      -0.035800
     15 C9           3.0310     0.1250    -0.0100 c6         1 PMN      -0.069700
     16 C10          2.8260    -1.3880    -0.3370 c5         1 PMN       0.165300
     17 C11          3.8690    -2.3410     0.3910 c5         1 PMN      -0.101400
     18 C12          5.2820    -1.8670    -0.1900 c5         1 PMN      -0.096700
     19 C13          5.5720    -0.5040     0.5330 c5         1 PMN      -0.063400
     20 C14          5.0850     0.1100    -1.6600 c5         1 PMN      -0.091400
     21 C15          4.8100    -1.4280    -1.6410 c5         1 PMN       0.160000
     22 C17          5.4340    -2.2110    -2.8130 c3         1 PMN      -0.071100
     23 C18          2.7040    -0.0850     2.6090 c3         1 PMN      -0.084100
     24 C22         -5.5550    -0.4760     0.2570 ca         1 PMN      -0.303600
     25 C23         -4.1780    -0.1660     0.3210 ca         1 PMN       0.259100
     26 C24         -3.5020     0.3900    -0.7890 ca         1 PMN      -0.274000
     27 C25         -4.2150     0.6090    -1.9810 ca         1 PMN       0.185100
     28 C26         -5.5760     0.3050    -2.0570 ca         1 PMN      -0.242000
     29 C27         -6.2480    -0.2280    -0.9480 ca         1 PMN       0.007000
     30 HO30        -2.6840     1.3710    -2.8120 ho         1 PMN       0.461000
     31 HO31        -4.1800    -0.8270     2.0650 ho         1 PMN       0.555000
     32 HN28        -1.5270     0.1890    -1.3790 hn         1 PMN       0.133000
     33 H21          0.3680     0.9590    -0.9150 hc         1 PMN       0.052700
     34 H22          0.4940     2.4730     0.0420 hc         1 PMN       0.052700
     35 H31          0.3480     1.0270     2.1370 hc         1 PMN       0.071700
     36 H32          0.4370    -0.3900     1.1320 hc         1 PMN       0.071700
     37 H6           4.3520     3.6530     1.1320 ha         1 PMN       0.192000
     38 H7           5.8430     2.3610    -0.3000 ha         1 PMN       0.170000
     39 H9           2.5540     0.6660    -0.8370 hc         1 PMN       0.063700
     40 H10          1.7760    -1.7050    -0.2660 h1         1 PMN       0.099700
     41 H111         3.8300    -2.3080     1.4820 hc         1 PMN       0.062200
     42 H112         3.6740    -3.3860     0.1220 hc         1 PMN       0.062200
     43 H12          6.0860    -2.6100    -0.1350 hc         1 PMN       0.066700
     44 H131         6.6150    -0.1990     0.3840 hc         1 PMN       0.048200
     45 H132         5.4410    -0.5550     1.6150 hc         1 PMN       0.048200
     46 H141         4.5140     0.6240    -2.4410 hc         1 PMN       0.054200
     47 H142         6.1440     0.3450    -1.8230 hc         1 PMN       0.054200
     48 H171         5.0580    -1.8440    -3.7760 hc         1 PMN       0.042367
     49 H172         6.5250    -2.1070    -2.8170 hc         1 PMN       0.042367
     50 H173         5.1990    -3.2790    -2.7410 hc         1 PMN       0.042367
     51 H181         2.3490    -1.1210     2.5790 hc         1 PMN       0.042033
     52 H182         3.7740    -0.0840     2.8290 hc         1 PMN       0.042033
     53 H183         2.2210     0.3760     3.4790 hc         1 PMN       0.042033
     54 H26         -6.1200     0.4860    -2.9800 ha         1 PMN       0.107000
     55 H27         -7.3100    -0.4540    -1.0380 ha         1 PMN       0.122000
     56 C21         -6.2960    -1.0710     1.4340 c          1 PMN       0.729600
     57 O31         -3.4840    -0.4520     1.4520 oh         1 PMN      -0.635100
     58 O30         -3.5980     1.1390    -3.0720 oh         1 PMN      -0.550100
@<TRIPOS>BOND
     1     1    16 1   
     2     1    21 1   
     3     2    11 2   
     4     3     7 2   
     5     4    56 1   
     6     5    56 1   
     7     6     7 1   
     8     6    26 1   
     9     6    32 1   
    10     7     8 1   
    11     8     9 1   
    12     8    33 1   
    13     8    34 1   
    14     9    10 1   
    15     9    35 1   
    16     9    36 1   
    17    10    11 1   
    18    10    15 1   
    19    10    23 1   
    20    11    12 1   
    21    12    13 2   
    22    12    37 1   
    23    13    14 1   
    24    13    38 1   
    25    14    15 1   
    26    14    19 1   
    27    14    20 1   
    28    15    16 1   
    29    15    39 1   
    30    16    17 1   
    31    16    40 1   
    32    17    18 1   
    33    17    41 1   
    34    17    42 1   
    35    18    19 1   
    36    18    21 1   
    37    18    43 1   
    38    19    44 1   
    39    19    45 1   
    40    20    21 1   
    41    20    46 1   
    42    20    47 1   
    43    21    22 1   
    44    22    48 1   
    45    22    49 1   
    46    22    50 1   
    47    23    51 1   
    48    23    52 1   
    49    23    53 1   
    50    24    25 ar  
    51    24    29 ar  
    52    24    56 1   
    53    25    26 ar  
    54    25    57 1   
    55    26    27 ar  
    56    27    28 ar  
    57    27    58 1   
    58    28    29 ar  
    59    28    54 1   
    60    29    55 1   
    61    30    58 1   
    62    31    57 1   
@<TRIPOS>SUBSTRUCTURE
     1 PMN         1 TEMP              0 ****  ****    0 ROOT
