@<TRIPOS>MOLECULE
PMN
   58    62     1     0     0
SMALL
abcg2


@<TRIPOS>ATOM
      1 O16          3.0640    -1.3330    -1.7420 os         1 PMN      -0.449000
      2 O19          2.1480     3.2890     1.7580 o          1 PMN      -0.508100
      3 O20         -1.9190     2.2120     0.6010 o          1 PMN      -0.570100
      4 O32         -4.6650    -2.2040     2.1120 o          1 PMN      -0.696000
      5 O33         -6.7640    -2.0430     1.3920 o          1 PMN      -0.696000
      6 N28         -1.8720     0.6020    -0.9850 ns         1 PMN      -0.147000
      7 C1          -1.2800     1.4940    -0.1450 c          1 PMN       0.597100
      8 C2           0.2300     1.5160    -0.2000 c3         1 PMN      -0.164400
      9 C3           0.8010     0.9270     1.0920 c3         1 PMN      -0.062400
     10 C4           2.3330     0.9520     1.2210 c6         1 PMN      -0.121000
     11 C5           2.8450     2.3890     1.3290 c          1 PMN       0.564300
     12 C6           4.2550     2.6340     0.9960 ce         1 PMN      -0.297200
     13 C7           5.0300     1.7180     0.4070 c2         1 PMN      -0.140200
     14 C8           4.5490     0.3910    -0.0420 c5         1 PMN      -0.035800
     15 C9           3.0040     0.3160    -0.0160 c6         1 PMN      -0.069700
     16 C10          2.5570    -1.1020    -0.4340 c5         1 PMN       0.165300
     17 C11          3.2430    -2.2290     0.3300 c5         1 PMN      -0.101400
     18 C12          4.6790    -1.9770    -0.1230 c5         1 PMN      -0.096700
     19 C13          5.2190    -0.7940     0.6850 c5         1 PMN      -0.063400
     20 C14          4.9880     0.0360    -1.4740 c5         1 PMN      -0.091400
     21 C15          4.4830    -1.4080    -1.5740 c5         1 PMN       0.160000
     22 C17          5.0800    -2.2260    -2.6920 c3         1 PMN      -0.071100
     23 C18          2.6800     0.3210     2.5820 c3         1 PMN      -0.084100
     24 C22         -5.0740    -0.8600     0.2300 ca         1 PMN      -0.303600
     25 C23         -3.7020    -0.5580     0.1360 ca         1 PMN       0.259100
     26 C24         -3.2460     0.2890    -0.8800 ca         1 PMN      -0.274000
     27 C25         -4.1440     0.8440    -1.7880 ca         1 PMN       0.185100
     28 C26         -5.5050     0.5460    -1.7040 ca         1 PMN      -0.242000
     29 C27         -5.9430    -0.2960    -0.7000 ca         1 PMN       0.007000
     30 HO30        -2.7650     1.7740    -2.6960 ho         1 PMN       0.461000
     31 HO31        -3.4320    -1.6310     1.6210 ho         1 PMN       0.555000
     32 HN28        -1.2740    -0.0400    -1.4850 hn         1 PMN       0.133000
     33 H21          0.5850     0.9730    -1.0770 hc         1 PMN       0.052700
     34 H22          0.5460     2.5540    -0.3180 hc         1 PMN       0.052700
     35 H31          0.3740     1.4650     1.9400 hc         1 PMN       0.071700
     36 H32          0.4650    -0.1080     1.1970 hc         1 PMN       0.071700
     37 H6           4.6550     3.6040     1.2690 ha         1 PMN       0.192000
     38 H7           6.0770     1.9440     0.2240 ha         1 PMN       0.170000
     39 H9           2.6860     0.9530    -0.8530 hc         1 PMN       0.063700
     40 H10          1.4690    -1.1880    -0.4690 h1         1 PMN       0.099700
     41 H111         3.1290    -2.2000     1.4110 hc         1 PMN       0.062200
     42 H112         2.8530    -3.1880    -0.0190 hc         1 PMN       0.062200
     43 H12          5.3210    -2.8580    -0.0860 hc         1 PMN       0.066700
     44 H131         6.3040    -0.7010     0.5970 hc         1 PMN       0.048200
     45 H132         4.9880    -0.8750     1.7460 hc         1 PMN       0.048200
     46 H141         4.5540     0.6760    -2.2450 hc         1 PMN       0.054200
     47 H142         6.0780     0.0920    -1.5610 hc         1 PMN       0.054200
     48 H171         4.8500    -1.7940    -3.6670 hc         1 PMN       0.042367
     49 H172         6.1650    -2.2620    -2.5910 hc         1 PMN       0.042367
     50 H173         4.7070    -3.2510    -2.6750 hc         1 PMN       0.042367
     51 H181         2.3990    -0.7300     2.6200 hc         1 PMN       0.042033
     52 H182         3.7370     0.3970     2.8300 hc         1 PMN       0.042033
     53 H183         2.1280     0.8320     3.3720 hc         1 PMN       0.042033
     54 H26         -6.1980     0.9770    -2.4160 ha         1 PMN       0.107000
     55 H27         -6.9970    -0.5300    -0.6290 ha         1 PMN       0.122000
     56 C21         -5.5640    -1.7690     1.3170 c          1 PMN       0.729600
     57 O31         -2.8310    -1.0630     0.9930 oh         1 PMN      -0.635100
     58 O30         -3.7250     1.6710    -2.7570 oh         1 PMN      -0.550100
@<TRIPOS>BOND
     1     1    16 1   
     2     1    21 1   
     3     2    11 2   
     4     3     7 2   
     5     4    56 1   
     6     5    56 1   
     7     6     7 1   
     8     6    26 1   
     9     6    32 1   
    10     7     8 1   
    11     8     9 1   
    12     8    33 1   
    13     8    34 1   
    14     9    10 1   
    15     9    35 1   
    16     9    36 1   
    17    10    11 1   
    18    10    15 1   
    19    10    23 1   
    20    11    12 1   
    21    12    13 2   
    22    12    37 1   
    23    13    14 1   
    24    13    38 1   
    25    14    15 1   
    26    14    19 1   
    27    14    20 1   
    28    15    16 1   
    29    15    39 1   
    30    16    17 1   
    31    16    40 1   
    32    17    18 1   
    33    17    41 1   
    34    17    42 1   
    35    18    19 1   
    36    18    21 1   
    37    18    43 1   
    38    19    44 1   
    39    19    45 1   
    40    20    21 1   
    41    20    46 1   
    42    20    47 1   
    43    21    22 1   
    44    22    48 1   
    45    22    49 1   
    46    22    50 1   
    47    23    51 1   
    48    23    52 1   
    49    23    53 1   
    50    24    25 ar  
    51    24    29 ar  
    52    24    56 1   
    53    25    26 ar  
    54    25    57 1   
    55    26    27 ar  
    56    27    28 ar  
    57    27    58 1   
    58    28    29 ar  
    59    28    54 1   
    60    29    55 1   
    61    30    58 1   
    62    31    57 1   
@<TRIPOS>SUBSTRUCTURE
     1 PMN         1 TEMP              0 ****  ****    0 ROOT
