@<TRIPOS>MOLECULE
PMQ
   19    19     1     0     0
SMALL
abcg2


@<TRIPOS>ATOM
      1 C17         -2.4830    -0.8920     0.0950 c          1 PMQ       0.741000
      2 O18         -2.4350    -1.2570     1.2900 o          1 PMQ      -0.745500
      3 N19         -1.5430     0.0490    -0.3320 ns         1 PMQ      -0.588900
      4 C20         -0.6020     0.7170     0.5080 c3         1 PMQ       0.160300
      5 C21          0.8470     0.3730     0.2330 ca         1 PMQ      -0.072300
      6 C22          1.8410     1.3300     0.4220 ca         1 PMQ      -0.106000
      7 C23          3.1790     1.0250     0.2050 ca         1 PMQ      -0.126500
      8 C24          3.5420    -0.2480    -0.2150 ca         1 PMQ      -0.141000
      9 C25          2.5570    -1.2080    -0.4150 ca         1 PMQ      -0.126500
     10 C26          1.2220    -0.9000    -0.1900 ca         1 PMQ      -0.106000
     11 HN19        -1.6490     0.3930    -1.2710 hn         1 PMQ       0.265500
     12 H20         -0.7160     1.8050     0.4410 h1         1 PMQ       0.036200
     13 H20A        -0.8360     0.4490     1.5410 h1         1 PMQ       0.036200
     14 H22          1.5660     2.3290     0.7390 ha         1 PMQ       0.121500
     15 H23          3.9370     1.7840     0.3550 ha         1 PMQ       0.093000
     16 H24          4.5830    -0.4890    -0.3910 ha         1 PMQ       0.089000
     17 H25          2.8320    -2.2010    -0.7450 ha         1 PMQ       0.093000
     18 H26          0.4580    -1.6470    -0.3640 ha         1 PMQ       0.121500
     19 OXT         -3.2850    -1.2880    -0.7810 o          1 PMQ      -0.745500
@<TRIPOS>BOND
     1     1     2 1   
     2     1     3 1   
     3     1    19 1   
     4     3     4 1   
     5     3    11 1   
     6     4     5 1   
     7     4    12 1   
     8     4    13 1   
     9     5     6 ar  
    10     5    10 ar  
    11     6     7 ar  
    12     6    14 1   
    13     7     8 ar  
    14     7    15 1   
    15     8     9 ar  
    16     8    16 1   
    17     9    10 ar  
    18     9    17 1   
    19    10    18 1   
@<TRIPOS>SUBSTRUCTURE
     1 PMQ         1 TEMP              0 ****  ****    0 ROOT
