@<TRIPOS>MOLECULE
PMQ
   19    19     1     0     0
SMALL
No Charge or Current Charge


@<TRIPOS>ATOM
      1 C17         -2.8160    -0.0180    -0.2620 c          1 PMQ       0.741000
      2 O18         -3.3640     0.0850     0.8200 o          1 PMQ      -0.745500
      3 N19         -1.4570    -0.0250    -0.3170 ns         1 PMQ      -0.588900
      4 C20         -0.5680     0.0810     0.8370 c3         1 PMQ       0.160300
      5 C21          0.8970     0.0400     0.4230 ca         1 PMQ      -0.072300
      6 C22          1.5820     1.2320     0.1140 ca         1 PMQ      -0.106000
      7 C23          2.9350     1.1940    -0.2680 ca         1 PMQ      -0.126500
      8 C24          3.6090    -0.0360    -0.3460 ca         1 PMQ      -0.141000
      9 C25          2.9310    -1.2280    -0.0420 ca         1 PMQ      -0.126500
     10 C26          1.5780    -1.1900     0.3410 ca         1 PMQ      -0.106000
     11 HN19        -1.0470    -0.1120    -1.2360 hn         1 PMQ       0.265500
     12 H20         -0.7760     1.0240     1.3620 h1         1 PMQ       0.036200
     13 H20A        -0.7790    -0.7460     1.5280 h1         1 PMQ       0.036200
     14 H22          1.0660     2.1880     0.1710 ha         1 PMQ       0.121500
     15 H23          3.4590     2.1170    -0.5050 ha         1 PMQ       0.093000
     16 H24          4.6550    -0.0660    -0.6430 ha         1 PMQ       0.089000
     17 H25          3.4520    -2.1810    -0.1030 ha         1 PMQ       0.093000
     18 H26          1.0580    -2.1180     0.5730 ha         1 PMQ       0.121500
     19 OXT         -3.4000    -0.1160    -1.3220 o          1 PMQ      -0.745500
@<TRIPOS>BOND
     1     1     2 1   
     2     1     3 1   
     3     1    19 1   
     4     3     4 1   
     5     3    11 1   
     6     4     5 1   
     7     4    12 1   
     8     4    13 1   
     9     5     6 ar  
    10     5    10 ar  
    11     6     7 ar  
    12     6    14 1   
    13     7     8 ar  
    14     7    15 1   
    15     8     9 ar  
    16     8    16 1   
    17     9    10 ar  
    18     9    17 1   
    19    10    18 1   
@<TRIPOS>SUBSTRUCTURE
     1 PMQ         1 TEMP              0 ****  ****    0 ROOT
