@<TRIPOS>MOLECULE
PMS
   18    18     1     0     0
SMALL
abcg2


@<TRIPOS>ATOM
      1 C            0.5140    -0.0130    -1.1850 c3         1 PMS      -0.313100
      2 S            1.7700    -0.0130     0.1220 s6         1 PMS       1.318600
      3 C1          -0.8680    -0.0110    -0.6200 ca         1 PMS      -0.003300
      4 C2          -1.5180     1.1880    -0.3380 ca         1 PMS      -0.099000
      5 C3          -2.7970     1.1920     0.2010 ca         1 PMS      -0.120500
      6 C4          -3.4420    -0.0070     0.4760 ca         1 PMS      -0.142000
      7 C5          -2.7990    -1.2080     0.2050 ca         1 PMS      -0.120500
      8 C6          -1.5200    -1.2080    -0.3340 ca         1 PMS      -0.099000
      9 O3S          3.0610    -0.0140    -0.5960 o          1 PMS      -0.690867
     10 O2S          1.5370     1.2190     0.8980 o          1 PMS      -0.690867
     11 O1S          1.5360    -1.2440     0.9000 o          1 PMS      -0.690867
     12 H2A          0.6970     0.8680    -1.8020 h1         1 PMS       0.073700
     13 H1           0.6950    -0.8970    -1.7990 h1         1 PMS       0.073700
     14 H2          -1.0240     2.1270    -0.5530 ha         1 PMS       0.116000
     15 H3          -3.2910     2.1340     0.4070 ha         1 PMS       0.092000
     16 H4          -4.4400    -0.0040     0.8950 ha         1 PMS       0.088000
     17 H5          -3.2950    -2.1470     0.4130 ha         1 PMS       0.092000
     18 H6          -1.0290    -2.1490    -0.5470 ha         1 PMS       0.116000
@<TRIPOS>BOND
     1     1     2 1   
     2     1     3 1   
     3     1    12 1   
     4     1    13 1   
     5     2     9 1   
     6     2    10 1   
     7     2    11 1   
     8     3     4 ar  
     9     3     8 ar  
    10     4     5 ar  
    11     4    14 1   
    12     5     6 ar  
    13     5    15 1   
    14     6     7 ar  
    15     6    16 1   
    16     7     8 ar  
    17     7    17 1   
    18     8    18 1   
@<TRIPOS>SUBSTRUCTURE
     1 PMS         1 TEMP              0 ****  ****    0 ROOT
