@<TRIPOS>MOLECULE
PMS
   18    18     1     0     0
SMALL
No Charge or Current Charge


@<TRIPOS>ATOM
      1 C            0.5450    -0.0130    -1.1360 c3         1 PMS      -0.313100
      2 S            1.8610    -0.0130     0.1050 s6         1 PMS       1.318600
      3 C1          -0.8690    -0.0110    -0.5680 ca         1 PMS      -0.003300
      4 C2          -1.5320     1.2060    -0.3160 ca         1 PMS      -0.099000
      5 C3          -2.8430     1.2080     0.1930 ca         1 PMS      -0.120500
      6 C4          -3.4990    -0.0070     0.4500 ca         1 PMS      -0.142000
      7 C5          -2.8450    -1.2240     0.1970 ca         1 PMS      -0.120500
      8 C6          -1.5340    -1.2260    -0.3130 ca         1 PMS      -0.099000
      9 O3S          3.0910    -0.0150    -0.7020 o          1 PMS      -0.690867
     10 O2S          1.6370     1.2260     0.8650 o          1 PMS      -0.690867
     11 O1S          1.6350    -1.2500     0.8680 o          1 PMS      -0.690867
     12 H2A          0.7100     0.8760    -1.7530 h1         1 PMS       0.073700
     13 H1           0.7080    -0.9040    -1.7510 h1         1 PMS       0.073700
     14 H2          -1.0300     2.1500    -0.5140 ha         1 PMS       0.116000
     15 H3          -3.3480     2.1520     0.3870 ha         1 PMS       0.092000
     16 H4          -4.5130    -0.0050     0.8440 ha         1 PMS       0.088000
     17 H5          -3.3520    -2.1650     0.3940 ha         1 PMS       0.092000
     18 H6          -1.0340    -2.1710    -0.5080 ha         1 PMS       0.116000
@<TRIPOS>BOND
     1     1     2 1   
     2     1     3 1   
     3     1    12 1   
     4     1    13 1   
     5     2     9 1   
     6     2    10 1   
     7     2    11 1   
     8     3     4 ar  
     9     3     8 ar  
    10     4     5 ar  
    11     4    14 1   
    12     5     6 ar  
    13     5    15 1   
    14     6     7 ar  
    15     6    16 1   
    16     7     8 ar  
    17     7    17 1   
    18     8    18 1   
@<TRIPOS>SUBSTRUCTURE
     1 PMS         1 TEMP              0 ****  ****    0 ROOT
