@<TRIPOS>MOLECULE
PMU
   46    48     1     0     0
SMALL
abcg2


@<TRIPOS>ATOM
      1 C1           2.7280     1.2780     0.6390 c5         1 PMU       0.197800
      2 N1           2.8710    -0.0900     0.1970 nh         1 PMU      -0.850400
      3 C2          -0.3780    -2.7070    -0.3280 ca         1 PMU       0.165100
      4 O2           6.3230     0.7640     0.5350 oh         1 PMU      -0.639000
      5 C3           0.9410    -3.1620    -0.3890 ca         1 PMU      -0.132000
      6 O3           4.4370     3.0340     0.9230 oh         1 PMU      -0.639000
      7 C4           2.0120    -2.3120    -0.2210 ca         1 PMU      -0.122000
      8 C5           1.8130    -0.9400     0.0150 ca         1 PMU       0.298000
      9 C6           0.4970    -0.4840     0.0550 ca         1 PMU      -0.128000
     10 C7          -0.6050    -1.3340    -0.1100 cp         1 PMU      -0.231500
     11 C8           4.2520    -0.4880     0.0540 c5         1 PMU       0.197800
     12 C9           4.1510     1.6690     1.0420 c5         1 PMU       0.155800
     13 C10          4.9990     0.8460     0.0880 c5         1 PMU       0.155800
     14 C12         -3.5810     2.9330     1.6200 c3         1 PMU      -0.084100
     15 C15         -1.9720    -0.7820    -0.0580 cp         1 PMU       0.258500
     16 N16         -2.9770    -1.6630    -0.1290 nb         1 PMU      -0.325000
     17 C17         -4.2300    -1.2060    -0.0820 ca         1 PMU       0.418900
     18 C18         -3.3520     3.2700    -0.8690 c3         1 PMU      -0.084100
     19 N18         -4.5740     0.0810     0.0290 nb         1 PMU      -0.261000
     20 C19         -3.5860     0.9610     0.0940 ca         1 PMU       0.184300
     21 C20         -2.2500     0.5750     0.0530 ca         1 PMU      -0.277000
     22 N21         -5.2210    -2.1070    -0.1340 nv         1 PMU      -1.078900
     23 H1           2.3650     1.9390    -0.1590 h1         1 PMU       0.047200
     24 H1A          2.0310     1.3630     1.4790 h1         1 PMU       0.047200
     25 HO1         -2.2130    -3.1260    -0.3830 ho         1 PMU       0.517000
     26 HO2          6.8570     0.3770    -0.1650 ho         1 PMU       0.448000
     27 H3           1.1180    -4.2160    -0.5610 ha         1 PMU       0.127000
     28 HO3          3.9890     3.5030     1.6340 ho         1 PMU       0.448000
     29 H4           3.0120    -2.7230    -0.2640 ha         1 PMU       0.113000
     30 H6           0.3250     0.5690     0.2180 ha         1 PMU       0.110000
     31 H8           4.5960    -1.1300     0.8780 h1         1 PMU       0.047200
     32 H8A          4.4270    -1.0290    -0.8800 h1         1 PMU       0.047200
     33 H9           4.3390     1.3080     2.0630 h1         1 PMU       0.054700
     34 H10          4.9420     1.3090    -0.9080 h1         1 PMU       0.054700
     35 H11         -5.0560     2.4580     0.1430 hc         1 PMU       0.074700
     36 H12         -3.9220     3.9620     1.7450 hc         1 PMU       0.038200
     37 H12A        -4.0300     2.3350     2.4130 hc         1 PMU       0.038200
     38 H12B        -2.4990     2.9250     1.7620 hc         1 PMU       0.038200
     39 H18         -2.2620     3.2720    -0.8170 hc         1 PMU       0.038200
     40 H18A        -3.6410     2.9180    -1.8600 hc         1 PMU       0.038200
     41 H18B        -3.6850     4.3030    -0.7710 hc         1 PMU       0.038200
     42 H20         -1.4720     1.3200     0.0960 ha         1 PMU       0.134000
     43 HN21        -5.0230    -3.0780    -0.2940 hn         1 PMU       0.504500
     44 HN2A        -6.1750    -1.7980    -0.1910 hn         1 PMU       0.504500
     45 O1          -1.3550    -3.6120    -0.4860 oh         1 PMU      -0.564100
     46 C11         -3.9690     2.4120     0.2350 c3         1 PMU      -0.125000
@<TRIPOS>BOND
     1     1     2 1   
     2     1    12 1   
     3     1    23 1   
     4     1    24 1   
     5     2     8 1   
     6     2    11 1   
     7     3     5 ar  
     8     3    10 ar  
     9     3    45 1   
    10     4    13 1   
    11     4    26 1   
    12     5     7 ar  
    13     5    27 1   
    14     6    12 1   
    15     6    28 1   
    16     7     8 ar  
    17     7    29 1   
    18     8     9 ar  
    19     9    10 ar  
    20     9    30 1   
    21    10    15 1   
    22    11    13 1   
    23    11    31 1   
    24    11    32 1   
    25    12    13 1   
    26    12    33 1   
    27    13    34 1   
    28    14    36 1   
    29    14    37 1   
    30    14    38 1   
    31    14    46 1   
    32    15    16 ar  
    33    15    21 ar  
    34    16    17 ar  
    35    17    19 ar  
    36    17    22 1   
    37    18    39 1   
    38    18    40 1   
    39    18    41 1   
    40    18    46 1   
    41    19    20 ar  
    42    20    21 ar  
    43    20    46 1   
    44    21    42 1   
    45    22    43 1   
    46    22    44 1   
    47    25    45 1   
    48    35    46 1   
@<TRIPOS>SUBSTRUCTURE
     1 PMU         1 TEMP              0 ****  ****    0 ROOT
