@<TRIPOS>MOLECULE
PMU
   46    48     1     0     0
SMALL
No Charge or Current Charge


@<TRIPOS>ATOM
      1 C1           2.8070     1.1040     1.1530 c5         1 PMU       0.197800
      2 N1           2.9240    -0.1360     0.3320 nh         1 PMU      -0.850400
      3 C2          -0.3500    -2.6470    -0.7100 ca         1 PMU       0.165100
      4 O2           6.4540     0.8980     0.3780 oh         1 PMU      -0.639000
      5 C3           0.9690    -3.0860    -0.8920 ca         1 PMU      -0.132000
      6 O3           4.5250     2.7650     1.9290 oh         1 PMU      -0.639000
      7 C4           2.0520    -2.2590    -0.5520 ca         1 PMU      -0.122000
      8 C5           1.8310    -0.9740    -0.0210 ca         1 PMU       0.298000
      9 C6           0.4990    -0.5410     0.1540 ca         1 PMU      -0.128000
     10 C7          -0.6220    -1.3530    -0.1850 cp         1 PMU      -0.231500
     11 C8           4.3390    -0.3820    -0.0730 c5         1 PMU       0.197800
     12 C9           4.2920     1.3960     1.5480 c5         1 PMU       0.155800
     13 C10          5.0240     0.9920     0.2270 c5         1 PMU       0.155800
     14 C12         -3.3190     3.3170     1.0770 c3         1 PMU      -0.084100
     15 C15         -2.0150    -0.8170     0.0140 cp         1 PMU       0.258500
     16 N16         -3.0020    -1.6900     0.3070 nb         1 PMU      -0.325000
     17 C17         -4.2250    -1.1860     0.5030 ca         1 PMU       0.418900
     18 C18         -3.8480     3.0020    -1.4060 c3         1 PMU      -0.084100
     19 N18         -4.6060     0.0940     0.4290 nb         1 PMU      -0.261000
     20 C19         -3.6410     0.9830     0.1230 ca         1 PMU       0.184300
     21 C20         -2.3170     0.5610    -0.0940 ca         1 PMU      -0.277000
     22 N21         -5.1900    -2.0840     0.8030 nv         1 PMU      -1.078900
     23 H1           2.3790     1.9290     0.5650 h1         1 PMU       0.047200
     24 H1A          2.1850     0.9510     2.0460 h1         1 PMU       0.047200
     25 HO1         -2.1920    -3.0800    -0.7540 ho         1 PMU       0.517000
     26 HO2          6.8290     0.7720    -0.5220 ho         1 PMU       0.448000
     27 H3           1.1560    -4.0760    -1.3000 ha         1 PMU       0.127000
     28 HO3          4.1430     2.8820     2.8270 ho         1 PMU       0.448000
     29 H4           3.0610    -2.6300    -0.6970 ha         1 PMU       0.113000
     30 H6           0.3230     0.4450     0.5710 ha         1 PMU       0.110000
     31 H8           4.7850    -1.1910     0.5210 h1         1 PMU       0.047200
     32 H8A          4.4250    -0.6390    -1.1380 h1         1 PMU       0.047200
     33 H9           4.5990     0.7210     2.3600 h1         1 PMU       0.054700
     34 H10          4.7760     1.7120    -0.5670 h1         1 PMU       0.054700
     35 H11         -5.1240     2.5350     0.2430 hc         1 PMU       0.074700
     36 H12         -3.6790     4.3530     1.0460 hc         1 PMU       0.038200
     37 H12A        -3.4970     2.9270     2.0860 hc         1 PMU       0.038200
     38 H12B        -2.2370     3.3270     0.8990 hc         1 PMU       0.038200
     39 H18         -2.7880     2.9970    -1.6850 hc         1 PMU       0.038200
     40 H18A        -4.3970     2.3920    -2.1340 hc         1 PMU       0.038200
     41 H18B        -4.2160     4.0330    -1.4810 hc         1 PMU       0.038200
     42 H20         -1.5480     1.2820    -0.3530 ha         1 PMU       0.134000
     43 HN21        -4.9970    -3.0730     0.6720 hn         1 PMU       0.504500
     44 HN2A        -6.1630    -1.7930     0.7450 hn         1 PMU       0.504500
     45 O1          -1.3550    -3.4910    -1.0680 oh         1 PMU      -0.564100
     46 C11         -4.0510     2.4530     0.0250 c3         1 PMU      -0.125000
@<TRIPOS>BOND
     1     1     2 1   
     2     1    12 1   
     3     1    23 1   
     4     1    24 1   
     5     2     8 1   
     6     2    11 1   
     7     3     5 ar  
     8     3    10 ar  
     9     3    45 1   
    10     4    13 1   
    11     4    26 1   
    12     5     7 ar  
    13     5    27 1   
    14     6    12 1   
    15     6    28 1   
    16     7     8 ar  
    17     7    29 1   
    18     8     9 ar  
    19     9    10 ar  
    20     9    30 1   
    21    10    15 1   
    22    11    13 1   
    23    11    31 1   
    24    11    32 1   
    25    12    13 1   
    26    12    33 1   
    27    13    34 1   
    28    14    36 1   
    29    14    37 1   
    30    14    38 1   
    31    14    46 1   
    32    15    16 ar  
    33    15    21 ar  
    34    16    17 ar  
    35    17    19 ar  
    36    17    22 1   
    37    18    39 1   
    38    18    40 1   
    39    18    41 1   
    40    18    46 1   
    41    19    20 ar  
    42    20    21 ar  
    43    20    46 1   
    44    21    42 1   
    45    22    43 1   
    46    22    44 1   
    47    25    45 1   
    48    35    46 1   
@<TRIPOS>SUBSTRUCTURE
     1 PMU         1 TEMP              0 ****  ****    0 ROOT
