@<TRIPOS>MOLECULE
PMW
   55    58     1     0     0
SMALL
No Charge or Current Charge


@<TRIPOS>ATOM
      1 C13          5.7000   -12.1350   -14.5750 c3         1 PMW      -0.128400
      2 C17          5.3160   -16.6160   -12.9180 cc         1 PMW      -0.194300
      3 C20          3.3090   -18.1770   -13.1420 c3         1 PMW      -0.034800
      4 C21          3.7670   -16.1070   -14.6400 cd         1 PMW      -0.125300
      5 C02          2.5640   -17.1390   -19.3380 c          1 PMW       0.609100
      6 C04          0.5630   -17.7840   -20.5190 c3         1 PMW       0.151900
      7 C05          3.5070   -15.9530   -19.0580 c3         1 PMW      -0.098700
      8 C06          4.7770   -16.0430   -19.9660 c3         1 PMW      -0.068400
      9 C07          5.8370   -17.0870   -19.5430 c3         1 PMW      -0.095100
     10 C08          3.7720   -15.8200   -17.5280 c3         1 PMW       0.165200
     11 C09          4.5540   -14.5890   -17.0760 cc         1 PMW       0.362800
     12 C12          5.3870   -13.0070   -15.7610 cc         1 PMW       0.403800
     13 C18          5.9920   -17.2990   -11.7560 c3         1 PMW      -0.022800
     14 C19          4.1380   -16.9780   -13.5510 cd         1 PMW      -0.080300
     15 C15          4.7020   -15.0910   -14.7500 cc         1 PMW      -0.137200
     16 C22          2.4860   -16.3530   -15.4490 c3         1 PMW       0.296100
     17 C23          1.2280   -15.8720   -14.7320 ca         1 PMW      -0.090300
     18 C24          0.0810   -16.6930   -14.6890 ca         1 PMW      -0.084000
     19 C25         -1.0800   -16.2550   -14.0280 ca         1 PMW      -0.108000
     20 C26         -1.1040   -14.9950   -13.4090 ca         1 PMW       0.125000
     21 C28          0.0310   -14.1700   -13.4510 ca         1 PMW      -0.108000
     22 C29          1.1930   -14.6050   -14.1120 ca         1 PMW      -0.084000
     23 N10          5.1320   -13.6670   -17.8370 nd         1 PMW      -0.348000
     24 N11          5.6570   -12.6870   -17.0180 nd         1 PMW      -0.355000
     25 N14          4.5990   -14.1370   -15.7770 na         1 PMW      -0.250800
     26 N30          2.4700   -15.8100   -16.8160 n7         1 PMW      -0.882400
     27 O01          2.8060   -18.2990   -19.0240 o          1 PMW      -0.499000
     28 O03          1.5060   -16.7690   -20.1320 os         1 PMW      -0.437100
     29 S16          6.0400   -15.1790   -13.6240 ss         1 PMW       0.221000
     30 Cl1         -2.5570   -14.4500   -12.5830 cl         1 PMW      -0.202000
     31 H1           5.6050   -11.0760   -14.8390 hc         1 PMW       0.064367
     32 H2           5.0110   -12.3330   -13.7460 hc         1 PMW       0.064367
     33 H3           6.7250   -12.3040   -14.2270 hc         1 PMW       0.064367
     34 H4           3.3000   -18.9370   -13.9330 hc         1 PMW       0.049367
     35 H5           3.6900   -18.6580   -12.2350 hc         1 PMW       0.049367
     36 H6           2.2710   -17.8890   -12.9390 hc         1 PMW       0.049367
     37 H7          -0.2310   -17.3500   -21.1400 h1         1 PMW       0.046367
     38 H8           1.0550   -18.5750   -21.1000 h1         1 PMW       0.046367
     39 H9           0.0950   -18.2390   -19.6370 h1         1 PMW       0.046367
     40 H10          2.9690   -15.0520   -19.3770 hc         1 PMW       0.092700
     41 H11          5.2620   -15.0640   -20.0310 hc         1 PMW       0.060200
     42 H12          4.4560   -16.2710   -20.9910 hc         1 PMW       0.060200
     43 H13          6.6590   -17.1020   -20.2690 hc         1 PMW       0.038033
     44 H14          6.2630   -16.8430   -18.5630 hc         1 PMW       0.038033
     45 H15          5.4110   -18.0950   -19.4990 hc         1 PMW       0.038033
     46 H16          4.3520   -16.7050   -17.2290 h1         1 PMW       0.095700
     47 H17          6.9350   -16.8030   -11.4940 hc         1 PMW       0.051367
     48 H18          5.3500   -17.2850   -10.8670 hc         1 PMW       0.051367
     49 H19          6.2210   -18.3440   -11.9960 hc         1 PMW       0.051367
     50 H20          2.4080   -17.4450   -15.5440 h1         1 PMW       0.087700
     51 H21          0.0890   -17.6690   -15.1690 ha         1 PMW       0.125000
     52 H22         -1.9610   -16.8910   -13.9960 ha         1 PMW       0.131500
     53 H23          0.0090   -13.1940   -12.9720 ha         1 PMW       0.131500
     54 H24          2.0670   -13.9580   -14.1380 ha         1 PMW       0.125000
     55 H25          2.1590   -14.8340   -16.7440 hn         1 PMW       0.440000
@<TRIPOS>BOND
     1     1    12 1   
     2     1    31 1   
     3     1    32 1   
     4     1    33 1   
     5     2    13 1   
     6     2    14 2   
     7     2    29 1   
     8     3    14 1   
     9     3    34 1   
    10     3    35 1   
    11     3    36 1   
    12     4    14 1   
    13     4    15 2   
    14     4    16 1   
    15     5     7 1   
    16     5    27 2   
    17     5    28 1   
    18     6    28 1   
    19     6    37 1   
    20     6    38 1   
    21     6    39 1   
    22     7     8 1   
    23     7    10 1   
    24     7    40 1   
    25     8     9 1   
    26     8    41 1   
    27     8    42 1   
    28     9    43 1   
    29     9    44 1   
    30     9    45 1   
    31    10    11 1   
    32    10    26 1   
    33    10    46 1   
    34    11    23 2   
    35    11    25 1   
    36    12    24 2   
    37    12    25 1   
    38    13    47 1   
    39    13    48 1   
    40    13    49 1   
    41    15    25 1   
    42    15    29 1   
    43    16    17 1   
    44    16    26 1   
    45    16    50 1   
    46    17    18 ar  
    47    17    22 ar  
    48    18    19 ar  
    49    18    51 1   
    50    19    20 ar  
    51    19    52 1   
    52    20    21 ar  
    53    20    30 1   
    54    21    22 ar  
    55    21    53 1   
    56    22    54 1   
    57    23    24 1   
    58    26    55 1   
@<TRIPOS>SUBSTRUCTURE
     1 PMW         1 TEMP              0 ****  ****    0 ROOT
