@<TRIPOS>MOLECULE
PMW
   55    58     1     0     0
SMALL
bcc


@<TRIPOS>ATOM
      1 C13          6.0510   -12.2790   -14.7900 c3         1 PMW      -0.128400
      2 C17          5.2360   -16.5440   -12.8450 cc         1 PMW      -0.049400
      3 C20          3.1500   -17.9510   -13.0090 c3         1 PMW      -0.034800
      4 C21          3.8130   -16.0600   -14.6340 cd         1 PMW      -0.125300
      5 C02          2.5200   -17.0180   -19.2070 c          1 PMW       0.658100
      6 C04          0.5900   -17.7960   -20.3060 c3         1 PMW       0.128700
      7 C05          3.4520   -15.8370   -19.0420 c3         1 PMW      -0.098700
      8 C06          4.6780   -15.9960   -19.9630 c3         1 PMW      -0.068400
      9 C07          5.6940   -17.0480   -19.5390 c3         1 PMW      -0.095100
     10 C08          3.7780   -15.7270   -17.5550 c3         1 PMW       0.165200
     11 C09          4.5930   -14.5270   -17.2180 cc         1 PMW       0.362800
     12 C12          5.5100   -13.0170   -15.9550 cc         1 PMW       0.403800
     13 C18          5.8370   -17.1490   -11.6180 c3         1 PMW      -0.022800
     14 C19          4.0690   -16.8640   -13.4710 cd         1 PMW      -0.080300
     15 C15          4.8140   -15.1560   -14.8490 cc         1 PMW       0.007700
     16 C22          2.5870   -16.3160   -15.4870 c3         1 PMW       0.296100
     17 C23          1.3040   -15.9730   -14.7620 ca         1 PMW      -0.090300
     18 C24          0.1460   -16.6860   -15.0520 ca         1 PMW      -0.102000
     19 C25         -1.0590   -16.3700   -14.4450 ca         1 PMW      -0.126000
     20 C26         -1.1000   -15.3180   -13.5420 ca         1 PMW       0.033400
     21 C28          0.0370   -14.5860   -13.2420 ca         1 PMW      -0.126000
     22 C29          1.2360   -14.9200   -13.8590 ca         1 PMW      -0.102000
     23 N10          4.8850   -13.5060   -17.9610 nd         1 PMW      -0.348000
     24 N11          5.4680   -12.5650   -17.1730 nd         1 PMW      -0.355000
     25 N14          4.9660   -14.2740   -15.9260 na         1 PMW      -0.250800
     26 N30          2.5400   -15.6740   -16.7870 n7         1 PMW      -0.827200
     27 O01          2.6920   -18.1020   -18.7070 o          1 PMW      -0.548000
     28 O03          1.5070   -16.7410   -20.0150 os         1 PMW      -0.413900
     29 S16          6.0660   -15.2840   -13.6690 ss         1 PMW      -0.068800
     30 CL1         -2.5990   -14.9170   -12.7700 cl         1 PMW      -0.110400
     31 H1           6.2050   -11.2420   -15.0790 hc         1 PMW       0.064367
     32 H2           5.3680   -12.3030   -13.9410 hc         1 PMW       0.064367
     33 H3           7.0110   -12.6780   -14.4620 hc         1 PMW       0.064367
     34 H4           3.0280   -18.7200   -13.7750 hc         1 PMW       0.049367
     35 H5           3.5330   -18.4430   -12.1170 hc         1 PMW       0.049367
     36 H6           2.1560   -17.5700   -12.7760 hc         1 PMW       0.049367
     37 H7          -0.1630   -17.3660   -20.9600 h1         1 PMW       0.046367
     38 H8           1.0820   -18.6230   -20.8170 h1         1 PMW       0.046367
     39 H9           0.1110   -18.1680   -19.4000 h1         1 PMW       0.046367
     40 H10          2.9240   -14.9320   -19.3520 hc         1 PMW       0.092700
     41 H11          5.1700   -15.0250   -20.0240 hc         1 PMW       0.060200
     42 H12          4.3220   -16.2140   -20.9730 hc         1 PMW       0.060200
     43 H13          6.4920   -17.1100   -20.2780 hc         1 PMW       0.038033
     44 H14          6.1630   -16.8010   -18.5850 hc         1 PMW       0.038033
     45 H15          5.2540   -18.0400   -19.4470 hc         1 PMW       0.038033
     46 H16          4.3140   -16.6290   -17.2430 h1         1 PMW       0.095700
     47 H17          6.6020   -16.5060   -11.1850 hc         1 PMW       0.051367
     48 H18          5.0800   -17.3170   -10.8530 hc         1 PMW       0.051367
     49 H19          6.3040   -18.1100   -11.8400 hc         1 PMW       0.051367
     50 H20          2.5800   -17.3970   -15.6740 h1         1 PMW       0.087700
     51 H21          0.1820   -17.5050   -15.7600 ha         1 PMW       0.143000
     52 H22         -1.9510   -16.9380   -14.6710 ha         1 PMW       0.149500
     53 H23         -0.0030   -13.7690   -12.5360 ha         1 PMW       0.149500
     54 H24          2.1250   -14.3510   -13.6130 ha         1 PMW       0.143000
     55 H25          2.1910   -14.7250   -16.7200 hn         1 PMW       0.384800
@<TRIPOS>BOND
     1     1    12 1   
     2     1    31 1   
     3     1    32 1   
     4     1    33 1   
     5     2    13 1   
     6     2    14 2   
     7     2    29 1   
     8     3    14 1   
     9     3    34 1   
    10     3    35 1   
    11     3    36 1   
    12     4    14 1   
    13     4    15 2   
    14     4    16 1   
    15     5     7 1   
    16     5    27 2   
    17     5    28 1   
    18     6    28 1   
    19     6    37 1   
    20     6    38 1   
    21     6    39 1   
    22     7     8 1   
    23     7    10 1   
    24     7    40 1   
    25     8     9 1   
    26     8    41 1   
    27     8    42 1   
    28     9    43 1   
    29     9    44 1   
    30     9    45 1   
    31    10    11 1   
    32    10    26 1   
    33    10    46 1   
    34    11    23 2   
    35    11    25 1   
    36    12    24 2   
    37    12    25 1   
    38    13    47 1   
    39    13    48 1   
    40    13    49 1   
    41    15    25 1   
    42    15    29 1   
    43    16    17 1   
    44    16    26 1   
    45    16    50 1   
    46    17    18 ar  
    47    17    22 ar  
    48    18    19 ar  
    49    18    51 1   
    50    19    20 ar  
    51    19    52 1   
    52    20    21 ar  
    53    20    30 1   
    54    21    22 ar  
    55    21    53 1   
    56    22    54 1   
    57    23    24 1   
    58    26    55 1   
@<TRIPOS>SUBSTRUCTURE
     1 PMW         1 TEMP              0 ****  ****    0 ROOT
