@<TRIPOS>MOLECULE
PMX
   35    35     1     0     0
SMALL
abcg2


@<TRIPOS>ATOM
      1 C            0.4500    -3.8170     0.3850 c          1 PMX       0.717000
      2 N           -0.2650    -1.4280     0.3350 ns         1 PMX      -0.441900
      3 O           -0.6510    -4.0310     0.9150 o          1 PMX      -0.714500
      4 CL           2.2190     3.2810     1.3250 cl         1 PMX      -0.213000
      5 CA           0.7840    -2.3510    -0.0140 c3         1 PMX      -0.045300
      6 CB           2.1100    -1.8880     0.6040 c3         1 PMX      -0.035100
      7 CG           2.5230    -0.5270     0.1230 ca         1 PMX      -0.072300
      8 OAA         -1.3850    -1.5060    -1.6330 o          1 PMX      -0.620100
      9 CAC          3.5280     0.8840    -1.5710 ca         1 PMX      -0.199000
     10 CAD         -3.3680     0.1800    -0.5270 ce         1 PMX      -0.247200
     11 CAE         -2.2980    -0.2250     0.1500 cf         1 PMX      -0.180200
     12 CAF         -1.2850    -1.1230    -0.4740 c          1 PMX       0.593300
     13 CAK          3.2360     2.0280    -0.8340 ca         1 PMX       0.120100
     14 OAL          3.5540     3.2690    -1.2360 oh         1 PMX      -0.527100
     15 OAM         -4.3020     1.5220     1.2120 o          1 PMX      -0.502000
     16 CAN         -4.3640     1.0830     0.0890 c          1 PMX       0.589300
     17 CAS          2.5850     1.8710     0.3870 ca         1 PMX       0.083000
     18 OAU         -5.3440     1.3550    -0.7590 os         1 PMX      -0.437100
     19 CAV         -6.3780     2.2320    -0.3120 c3         1 PMX       0.152900
     20 CD1          2.2330     0.6170     0.8590 ca         1 PMX      -0.074000
     21 CD2          3.1750    -0.3690    -1.0970 ca         1 PMX      -0.065000
     22 OXT          1.3410    -4.6450     0.1150 o          1 PMX      -0.714500
     23 HN          -0.3360    -1.1600     1.3040 hn         1 PMX       0.300500
     24 HA           0.8930    -2.3240    -1.1010 h1         1 PMX       0.069700
     25 HB           2.0280    -1.8920     1.6950 hc         1 PMX       0.061700
     26 HBA          2.8710    -2.6240     0.3450 hc         1 PMX       0.061700
     27 HAC          4.0420     0.9760    -2.5210 ha         1 PMX       0.105000
     28 HAD         -3.5330    -0.1380    -1.5490 ha         1 PMX       0.218000
     29 HAE         -2.1410     0.0980     1.1730 ha         1 PMX       0.188000
     30 HOAL         3.9990     3.2380    -2.0910 ho         1 PMX       0.457000
     31 HAV         -7.0740     2.3190    -1.1410 h1         1 PMX       0.041367
     32 HAVA        -6.8960     1.8260     0.5560 h1         1 PMX       0.041367
     33 HAVB        -5.9820     3.2170    -0.0670 h1         1 PMX       0.041367
     34 HD1          1.7350     0.5360     1.8170 ha         1 PMX       0.125000
     35 HD2          3.4170    -1.2410    -1.6920 ha         1 PMX       0.125000
@<TRIPOS>BOND
     1     1     3 1   
     2     1     5 1   
     3     1    22 1   
     4     2     5 1   
     5     2    12 1   
     6     2    23 1   
     7     4    17 1   
     8     5     6 1   
     9     5    24 1   
    10     6     7 1   
    11     6    25 1   
    12     6    26 1   
    13     7    20 ar  
    14     7    21 ar  
    15     8    12 2   
    16     9    13 ar  
    17     9    21 ar  
    18     9    27 1   
    19    10    11 2   
    20    10    16 1   
    21    10    28 1   
    22    11    12 1   
    23    11    29 1   
    24    13    14 1   
    25    13    17 ar  
    26    14    30 1   
    27    15    16 2   
    28    16    18 1   
    29    17    20 ar  
    30    18    19 1   
    31    19    31 1   
    32    19    32 1   
    33    19    33 1   
    34    20    34 1   
    35    21    35 1   
@<TRIPOS>SUBSTRUCTURE
     1 PMX         1 TEMP              0 ****  ****    0 ROOT
