@<TRIPOS>MOLECULE
PMX
   35    35     1     0     0
SMALL
No Charge or Current Charge


@<TRIPOS>ATOM
      1 C            0.9190    -4.1320     0.7740 c          1 PMX       0.717000
      2 N           -0.3040    -1.9720     0.4720 ns         1 PMX      -0.441900
      3 O            0.5930    -4.2700     1.9460 o          1 PMX      -0.714500
      4 Cl           1.1980     3.2470     1.1510 cl         1 PMX      -0.213000
      5 CA           0.9620    -2.6920     0.1820 c3         1 PMX      -0.045300
      6 CB           2.2010    -1.9120     0.6920 c3         1 PMX      -0.035100
      7 CG           2.3150    -0.5090     0.1050 ca         1 PMX      -0.072300
      8 OAA         -0.5690    -0.9180    -1.5380 o          1 PMX      -0.620100
      9 CAC          3.0300     0.9800    -1.6940 ca         1 PMX      -0.199000
     10 CAD         -2.9310     0.4560    -0.5050 ce         1 PMX      -0.247200
     11 CAE         -2.1510    -0.4410     0.1770 cf         1 PMX      -0.180200
     12 CAF         -0.9500    -1.1130    -0.3910 c          1 PMX       0.593300
     13 CAK          2.5030     2.0820    -1.0010 ca         1 PMX       0.120100
     14 OAL          2.6020     3.3290    -1.5550 oh         1 PMX      -0.527100
     15 OAM         -4.5540     0.9730     1.1810 o          1 PMX      -0.502000
     16 CAN         -4.1290     1.1400     0.0460 c          1 PMX       0.589300
     17 CAS          1.8790     1.8890     0.2520 ca         1 PMX       0.083000
     18 OAU         -4.6890     1.9760    -0.8810 os         1 PMX      -0.437100
     19 CAV         -5.8620     2.7180    -0.5010 c3         1 PMX       0.152900
     20 CD1          1.7920     0.5980     0.8010 ca         1 PMX      -0.074000
     21 CD2          2.9340    -0.3120    -1.1450 ca         1 PMX      -0.065000
     22 OXT          1.1330    -5.0710     0.0210 o          1 PMX      -0.714500
     23 HN          -0.7150    -2.0940     1.3900 hn         1 PMX       0.300500
     24 HA           1.0540    -2.8040    -0.9060 h1         1 PMX       0.069700
     25 HB           2.1640    -1.8580     1.7870 hc         1 PMX       0.061700
     26 HBA          3.1030    -2.4890     0.4520 hc         1 PMX       0.061700
     27 HAC          3.5100     1.1140    -2.6600 ha         1 PMX       0.105000
     28 HAD         -2.6820     0.7130    -1.5340 ha         1 PMX       0.218000
     29 HAE         -2.4070    -0.6900     1.2070 ha         1 PMX       0.188000
     30 HOAL         3.0610     3.2490    -2.4180 ho         1 PMX       0.457000
     31 HAV         -6.2030     3.3450    -1.3340 h1         1 PMX       0.041367
     32 HAVA        -6.6810     2.0400    -0.2270 h1         1 PMX       0.041367
     33 HAVB        -5.6510     3.3730     0.3540 h1         1 PMX       0.041367
     34 HD1          1.3080     0.4580     1.7640 ha         1 PMX       0.125000
     35 HD2          3.3370    -1.1610    -1.6920 ha         1 PMX       0.125000
@<TRIPOS>BOND
     1     1     3 1   
     2     1     5 1   
     3     1    22 1   
     4     2     5 1   
     5     2    12 1   
     6     2    23 1   
     7     4    17 1   
     8     5     6 1   
     9     5    24 1   
    10     6     7 1   
    11     6    25 1   
    12     6    26 1   
    13     7    20 ar  
    14     7    21 ar  
    15     8    12 2   
    16     9    13 ar  
    17     9    21 ar  
    18     9    27 1   
    19    10    11 2   
    20    10    16 1   
    21    10    28 1   
    22    11    12 1   
    23    11    29 1   
    24    13    14 1   
    25    13    17 ar  
    26    14    30 1   
    27    15    16 2   
    28    16    18 1   
    29    17    20 ar  
    30    18    19 1   
    31    19    31 1   
    32    19    32 1   
    33    19    33 1   
    34    20    34 1   
    35    21    35 1   
@<TRIPOS>SUBSTRUCTURE
     1 PMX         1 TEMP              0 ****  ****    0 ROOT
