@<TRIPOS>MOLECULE
PMY
  144   148     1     0     0
SMALL
No Charge or Current Charge


@<TRIPOS>ATOM
      1 NA          11.5700   -15.9820    27.6900 nt         1 PMY      -0.602000
      2 C1          11.0490   -14.9620    26.9720 c          1 PMY       0.619100
      3 O1           9.8500   -14.7300    27.0370 o          1 PMY      -0.621100
      4 C2          12.0920   -14.1550    26.1160 c3         1 PMY       0.048500
      5 NB          13.1880   -14.9940    25.4860 n8         1 PMY      -0.990200
      6 C3          11.3920   -13.2130    25.0840 c3         1 PMY       0.230800
      7 NC          11.1330   -13.9040    23.7870 n7         1 PMY      -1.003400
      8 ND           7.0780   -12.1390    22.1950 nt         1 PMY      -0.601000
      9 O4           7.3530   -14.2770    21.6490 o          1 PMY      -0.641100
     10 C5           8.7370   -13.4370    23.4400 c3         1 PMY      -0.192400
     11 C6          10.1650   -13.2460    22.8660 c3         1 PMY       0.239200
     12 C7          10.5860   -11.7890    22.5310 ca         1 PMY       0.187300
     13 NE           9.8010   -10.7630    22.9160 nb         1 PMY      -0.281000
     14 C8          10.2240    -9.5310    22.6140 ca         1 PMY       0.395900
     15 NG          11.7610   -11.6640    21.8840 nb         1 PMY      -0.221000
     16 C10         12.2180   -10.4220    21.5900 ca         1 PMY       0.093500
     17 C9          11.4380    -9.2780    21.9350 ca         1 PMY      -0.183300
     18 NF           9.3830    -8.5510    23.0420 nv         1 PMY      -1.085900
     19 CA          11.8900    -7.8490    21.6000 c3         1 PMY      -0.027800
     20 C12         13.6090   -10.3640    20.9500 c          1 PMY       0.496600
     21 O12         14.2030    -9.3360    20.6600 o          1 PMY      -0.605100
     22 NH          14.2000   -11.5930    20.7410 ns         1 PMY      -0.484900
     23 C13         15.6520   -11.8140    20.5130 c3         1 PMY       0.043700
     24 C14         16.1910   -12.8850    21.5000 c3         1 PMY       0.154000
     25 OH1         16.1500   -12.3570    22.8350 oh         1 PMY      -0.646000
     26 C27         15.4040   -14.1850    21.4540 cc         1 PMY       0.176300
     27 NJ          14.1630   -14.2860    22.0360 nc         1 PMY      -0.672000
     28 C28         15.7990   -15.3830    20.9260 cd         1 PMY      -0.188000
     29 C29         13.7820   -15.5460    21.8780 cd         1 PMY       0.380400
     30 NI          14.7580   -16.2540    21.2060 na         1 PMY      -0.309500
     31 C30         15.9810   -12.1780    19.0410 c          1 PMY       0.584100
     32 O30         17.1140   -12.4610    18.6780 o          1 PMY      -0.611100
     33 NK          14.9170   -12.1770    18.1630 ns         1 PMY      -0.500900
     34 C31         14.9950   -12.4770    16.7260 c3         1 PMY       0.117700
     35 CB          14.3180   -11.3310    15.9440 c3         1 PMY      -0.103100
     36 C33         14.3950   -13.8880    16.4120 c3         1 PMY       0.173300
     37 OH2         14.3540   -14.1300    15.0000 oh         1 PMY      -0.664000
     38 C34         15.1260   -15.0780    17.0940 c3         1 PMY      -0.177700
     39 CC          16.5800   -15.3160    16.5970 c3         1 PMY      -0.075100
     40 C36         14.2960   -16.3570    16.9410 c          1 PMY       0.584100
     41 O36         13.9590   -16.7860    15.8470 o          1 PMY      -0.614100
     42 NL          13.9440   -16.9750    18.1190 ns         1 PMY      -0.503900
     43 C37         13.2570   -18.2960    18.2110 c3         1 PMY      -0.004300
     44 C38         14.1650   -19.3750    18.8560 c3         1 PMY       0.167300
     45 OH3         14.5750   -18.9530    20.1660 oh         1 PMY      -0.700000
     46 CD          15.4270   -19.6710    18.0190 c3         1 PMY      -0.087100
     47 C40         11.8870   -18.2150    18.9350 c          1 PMY       0.578100
     48 O40         11.1080   -19.1580    18.9620 o          1 PMY      -0.597100
     49 NM          11.5710   -17.0030    19.5170 ns         1 PMY      -0.497900
     50 C41         10.2810   -16.6840    20.1380 c3         1 PMY       0.103000
     51 C42          9.2300   -16.2790    19.0870 c3         1 PMY      -0.130700
     52 C43          9.6460   -15.0720    18.3000 cc         1 PMY       0.420700
     53 S43         10.5090   -15.2430    16.7880 ss         1 PMY       0.025600
     54 C44         10.6690   -13.5110    16.7600 cc         1 PMY      -0.206000
     55 NN           9.4640   -13.8360    18.7400 nd         1 PMY      -0.661000
     56 C45         10.0560   -12.9390    17.8550 cd         1 PMY       0.213000
     57 C46         10.0890   -11.4960    18.0250 cd         1 PMY       0.412400
     58 S46          9.2810   -10.7160    19.3780 ss         1 PMY       0.033600
     59 C47          9.9550    -9.1990    18.8080 cd         1 PMY      -0.272000
     60 NO          10.7590   -10.6870    17.2100 nc         1 PMY      -0.592000
     61 C48         10.7020    -9.3830    17.6600 cc         1 PMY       0.252500
     62 C49         11.4270    -8.2520    16.9680 c          1 PMY       0.528600
     63 O49         12.0990    -8.3880    15.9500 o          1 PMY      -0.579100
     64 NP          11.3080    -7.0110    17.5740 ns         1 PMY      -0.504900
     65 C51         12.0150    -5.8020    17.1370 c3         1 PMY       0.103000
     66 C52         13.2970    -5.5270    17.9580 c3         1 PMY      -0.139400
     67 C53         14.2940    -6.7050    18.0880 c3         1 PMY       0.167800
     68 NQ          14.6580    -7.3030    16.7850 n7         1 PMY      -0.878400
     69 CE          16.7280    -6.0140    16.2670 c3         1 PMY      -0.082100
     70 C54         15.3330    -6.4650    15.7790 c3         1 PMY       0.226800
     71 C56         15.4090    -7.2470    14.4680 ca         1 PMY      -0.089300
     72 C57         16.1680    -8.4340    14.3740 ca         1 PMY      -0.095000
     73 C58         16.2210    -9.1530    13.1670 ca         1 PMY      -0.115000
     74 C59         15.5160    -8.6930    12.0430 ca         1 PMY      -0.110000
     75 C60         14.7560    -7.5150    12.1270 ca         1 PMY      -0.115000
     76 C61         14.7010    -6.7960    13.3350 ca         1 PMY      -0.095000
     77 HA1         10.9670   -16.5560    28.2580 hn         1 PMY       0.315500
     78 HA2         12.5550   -16.1860    27.5960 hn         1 PMY       0.315500
     79 H2          12.5870   -13.5010    26.8460 h1         1 PMY       0.055700
     80 HB1         12.7440   -15.5830    24.7720 hn         1 PMY       0.404000
     81 HB2         13.8050   -14.3890    24.9320 hn         1 PMY       0.404000
     82 H3E         12.0430   -12.3440    24.9120 h1         1 PMY       0.050700
     83 H3X         10.4680   -12.8200    25.5280 h1         1 PMY       0.050700
     84 HNC         12.0360   -13.9520    23.2950 hn         1 PMY       0.472000
     85 HD1          7.3620   -11.3540    22.7620 hn         1 PMY       0.326000
     86 HD2          6.3670   -12.0330    21.4880 hn         1 PMY       0.326000
     87 H5E          8.6690   -14.4390    23.8750 hc         1 PMY       0.086200
     88 H5X          8.5590   -12.6820    24.2120 hc         1 PMY       0.086200
     89 H6          10.1880   -13.7990    21.9160 h1         1 PMY       0.045700
     90 HF1          9.7310    -7.5980    23.0910 hn         1 PMY       0.499000
     91 HF2          8.6590    -8.7970    23.7120 hn         1 PMY       0.499000
     92 HAA         12.1420    -7.7550    20.5370 hc         1 PMY       0.048700
     93 HAB         12.7760    -7.5710    22.1830 hc         1 PMY       0.048700
     94 HAC         11.1250    -7.0920    21.7970 hc         1 PMY       0.048700
     95 HNH         13.6660   -12.3980    21.0670 hn         1 PMY       0.378500
     96 H13         16.1900   -10.8770    20.7050 h1         1 PMY       0.115700
     97 H14         17.2340   -13.1060    21.2320 h1         1 PMY       0.067700
     98 HO1         15.3060   -12.7010    23.2060 ho         1 PMY       0.445000
     99 H28         16.7170   -15.6700    20.4240 h4         1 PMY       0.170000
    100 H29         12.8580   -16.0020    22.2150 h5         1 PMY       0.068100
    101 HNI         14.7190   -17.2520    20.9990 hn         1 PMY       0.358000
    102 HNK         14.0240   -11.9010    18.5510 hn         1 PMY       0.318500
    103 H31         16.0500   -12.4840    16.4250 h1         1 PMY       0.083700
    104 HBA         14.4730   -11.4460    14.8650 hc         1 PMY       0.055367
    105 HBB         14.7380   -10.3620    16.2390 hc         1 PMY       0.055367
    106 HBC         13.2410   -11.3100    16.1360 hc         1 PMY       0.055367
    107 H33         13.3680   -13.8830    16.7980 h1         1 PMY       0.027700
    108 HO2         14.1640   -15.0950    14.9070 ho         1 PMY       0.476000
    109 H34         15.1980   -14.8630    18.1660 hc         1 PMY       0.067700
    110 HCA         16.6030   -15.5680    15.5300 hc         1 PMY       0.047367
    111 HCB         17.0390   -16.1460    17.1480 hc         1 PMY       0.047367
    112 HCC         17.2050   -14.4300    16.7520 hc         1 PMY       0.047367
    113 HNL         14.3610   -16.5940    18.9610 hn         1 PMY       0.330500
    114 H37         13.0130   -18.6350    17.1960 h1         1 PMY       0.109700
    115 H38         13.5850   -20.3080    18.9240 h1         1 PMY       0.074700
    116 HO3         15.0210   -19.7250    20.5850 ho         1 PMY       0.467000
    117 HDA         15.1500   -19.9750    17.0020 hc         1 PMY       0.045367
    118 HDB         16.0080   -20.4850    18.4680 hc         1 PMY       0.045367
    119 HDC         16.0720   -18.7870    17.9480 hc         1 PMY       0.045367
    120 HNM         12.2590   -16.2670    19.4220 hn         1 PMY       0.320500
    121 H1E         10.4250   -15.8600    20.8500 h1         1 PMY       0.073700
    122 H1X          9.9230   -17.5550    20.7030 h1         1 PMY       0.073700
    123 H2E          8.2800   -16.0750    19.5940 hc         1 PMY       0.077700
    124 H2X          9.0470   -17.1200    18.4090 hc         1 PMY       0.077700
    125 H44         11.1920   -13.0310    15.9430 h4         1 PMY       0.191000
    126 H47          9.7580    -8.2880    19.3570 h4         1 PMY       0.153000
    127 HNP         10.7290    -6.9530    18.4020 hn         1 PMY       0.309500
    128 H6E         11.3350    -4.9460    17.2350 h1         1 PMY       0.056700
    129 H6X         12.2730    -5.8910    16.0730 h1         1 PMY       0.056700
    130 H7E         13.0000    -5.2280    18.9700 hc         1 PMY       0.045200
    131 H7X         13.8110    -4.6600    17.5270 hc         1 PMY       0.045200
    132 H8E         13.8320    -7.4760    18.7190 h1         1 PMY       0.055200
    133 H8X         15.1880    -6.3590    18.6250 h1         1 PMY       0.055200
    134 HNQ         13.7850    -7.6490    16.3540 hn         1 PMY       0.447000
    135 HEA         17.3420    -6.8710    16.5680 hc         1 PMY       0.037033
    136 HEB         16.6440    -5.3320    17.1210 hc         1 PMY       0.037033
    137 HEC         17.2530    -5.4800    15.4670 hc         1 PMY       0.037033
    138 H54         14.7380    -5.5610    15.5920 h1         1 PMY       0.014700
    139 H57         16.7090    -8.8050    15.2410 ha         1 PMY       0.116500
    140 H58         16.8060   -10.0680    13.1050 ha         1 PMY       0.109000
    141 H59         15.5560    -9.2500    11.1090 ha         1 PMY       0.108000
    142 H60         14.2070    -7.1590    11.2590 ha         1 PMY       0.109000
    143 H61         14.1050    -5.8880    13.3890 ha         1 PMY       0.116500
    144 C4           7.6800   -13.3350    22.3480 c          1 PMY       0.588100
@<TRIPOS>BOND
     1     1     2 1   
     2     1    77 1   
     3     1    78 1   
     4     2     3 2   
     5     2     4 1   
     6     4     5 1   
     7     4     6 1   
     8     4    79 1   
     9     5    80 1   
    10     5    81 1   
    11     6     7 1   
    12     6    82 1   
    13     6    83 1   
    14     7    11 1   
    15     7    84 1   
    16     8    85 1   
    17     8    86 1   
    18     8   144 1   
    19     9   144 2   
    20    10    11 1   
    21    10    87 1   
    22    10    88 1   
    23    10   144 1   
    24    11    12 1   
    25    11    89 1   
    26    12    13 ar  
    27    12    15 ar  
    28    13    14 ar  
    29    14    17 ar  
    30    14    18 1   
    31    15    16 ar  
    32    16    17 ar  
    33    16    20 1   
    34    17    19 1   
    35    18    90 1   
    36    18    91 1   
    37    19    92 1   
    38    19    93 1   
    39    19    94 1   
    40    20    21 2   
    41    20    22 1   
    42    22    23 1   
    43    22    95 1   
    44    23    24 1   
    45    23    31 1   
    46    23    96 1   
    47    24    25 1   
    48    24    26 1   
    49    24    97 1   
    50    25    98 1   
    51    26    27 1   
    52    26    28 2   
    53    27    29 2   
    54    28    30 1   
    55    28    99 1   
    56    29    30 1   
    57    29   100 1   
    58    30   101 1   
    59    31    32 2   
    60    31    33 1   
    61    33    34 1   
    62    33   102 1   
    63    34    35 1   
    64    34    36 1   
    65    34   103 1   
    66    35   104 1   
    67    35   105 1   
    68    35   106 1   
    69    36    37 1   
    70    36    38 1   
    71    36   107 1   
    72    37   108 1   
    73    38    39 1   
    74    38    40 1   
    75    38   109 1   
    76    39   110 1   
    77    39   111 1   
    78    39   112 1   
    79    40    41 2   
    80    40    42 1   
    81    42    43 1   
    82    42   113 1   
    83    43    44 1   
    84    43    47 1   
    85    43   114 1   
    86    44    45 1   
    87    44    46 1   
    88    44   115 1   
    89    45   116 1   
    90    46   117 1   
    91    46   118 1   
    92    46   119 1   
    93    47    48 2   
    94    47    49 1   
    95    49    50 1   
    96    49   120 1   
    97    50    51 1   
    98    50   121 1   
    99    50   122 1   
   100    51    52 1   
   101    51   123 1   
   102    51   124 1   
   103    52    53 1   
   104    52    55 2   
   105    53    54 1   
   106    54    56 2   
   107    54   125 1   
   108    55    56 1   
   109    56    57 1   
   110    57    58 1   
   111    57    60 2   
   112    58    59 1   
   113    59    61 2   
   114    59   126 1   
   115    60    61 1   
   116    61    62 1   
   117    62    63 2   
   118    62    64 1   
   119    64    65 1   
   120    64   127 1   
   121    65    66 1   
   122    65   128 1   
   123    65   129 1   
   124    66    67 1   
   125    66   130 1   
   126    66   131 1   
   127    67    68 1   
   128    67   132 1   
   129    67   133 1   
   130    68    70 1   
   131    68   134 1   
   132    69    70 1   
   133    69   135 1   
   134    69   136 1   
   135    69   137 1   
   136    70    71 1   
   137    70   138 1   
   138    71    72 ar  
   139    71    76 ar  
   140    72    73 ar  
   141    72   139 1   
   142    73    74 ar  
   143    73   140 1   
   144    74    75 ar  
   145    74   141 1   
   146    75    76 ar  
   147    75   142 1   
   148    76   143 1   
@<TRIPOS>SUBSTRUCTURE
     1 PMY         1 TEMP              0 ****  ****    0 ROOT
