@<TRIPOS>MOLECULE
PMY
  144   148     1     0     0
SMALL
abcg2


@<TRIPOS>ATOM
      1 NA          11.9010   -12.7510    27.1630 nt         1 PMY      -0.602000
      2 C1          11.4920   -13.4830    26.1080 c          1 PMY       0.619100
      3 O1          10.5120   -13.1680    25.4370 o          1 PMY      -0.621100
      4 C2          12.3240   -14.7290    25.8180 c3         1 PMY       0.048500
      5 NB          11.5730   -15.9020    26.2720 n8         1 PMY      -0.990200
      6 C3          12.9030   -14.7890    24.3780 c3         1 PMY       0.230800
      7 NC          12.1590   -15.2880    23.2470 n7         1 PMY      -1.003400
      8 ND           7.8060   -14.6500    21.9290 nt         1 PMY      -0.601000
      9 O4           8.2140   -16.8570    22.2300 o          1 PMY      -0.641100
     10 C5           9.6370   -15.3080    23.3880 c3         1 PMY      -0.192400
     11 C6          10.9290   -14.8150    22.6640 c3         1 PMY       0.239200
     12 C7          10.9670   -13.3130    22.3810 ca         1 PMY       0.187300
     13 NE           9.8240   -12.6340    22.3950 nb         1 PMY      -0.281000
     14 C8           9.8560   -11.3140    22.1670 ca         1 PMY       0.395900
     15 NG          12.1400   -12.7840    22.0730 nb         1 PMY      -0.221000
     16 C10         12.1850   -11.4610    21.8200 ca         1 PMY       0.093500
     17 C9          11.0780   -10.6320    21.8920 ca         1 PMY      -0.183300
     18 NF           8.6630   -10.6840    22.1890 nv         1 PMY      -1.085900
     19 CA          11.1230    -9.1410    21.7090 c3         1 PMY      -0.027800
     20 C12         13.5490   -10.9560    21.3960 c          1 PMY       0.496600
     21 O12         13.7330    -9.8260    20.9450 o          1 PMY      -0.605100
     22 NH          14.5330   -11.8690    21.5090 ns         1 PMY      -0.484900
     23 C13         15.8620   -11.6280    20.9980 c3         1 PMY       0.043700
     24 C14         16.9130   -12.4910    21.7150 c3         1 PMY       0.154000
     25 OH1         16.9740   -12.0050    23.0620 oh         1 PMY      -0.646000
     26 C27         16.6340   -13.9590    21.6570 cc         1 PMY       0.176300
     27 NJ          15.4620   -14.4970    22.1490 nc         1 PMY      -0.672000
     28 C28         17.4300   -14.9650    21.1710 cd         1 PMY      -0.188000
     29 C29         15.5490   -15.7970    21.9710 cd         1 PMY       0.380400
     30 NI          16.7260   -16.1240    21.3790 na         1 PMY      -0.309500
     31 C30         16.0010   -11.8530    19.4820 c          1 PMY       0.584100
     32 O30         17.0310   -11.5020    18.9060 o          1 PMY      -0.611100
     33 NK          14.9780   -12.4700    18.8820 ns         1 PMY      -0.500900
     34 C31         14.9480   -12.8050    17.4650 c3         1 PMY       0.117700
     35 CB          14.3470   -11.6640    16.6480 c3         1 PMY      -0.103100
     36 C33         14.1710   -14.1140    17.2970 c3         1 PMY       0.173300
     37 OH2         14.1690   -14.4370    15.9140 oh         1 PMY      -0.664000
     38 C34         14.7430   -15.2720    18.1490 c3         1 PMY      -0.177700
     39 CC          16.1590   -15.6950    17.7430 c3         1 PMY      -0.075100
     40 C36         13.8020   -16.4570    18.0350 c          1 PMY       0.584100
     41 O36         13.4480   -16.9020    16.9360 o          1 PMY      -0.614100
     42 NL          13.3710   -16.9920    19.1920 ns         1 PMY      -0.503900
     43 C37         12.4890   -18.1360    19.2450 c3         1 PMY      -0.004300
     44 C38         12.6700   -18.9020    20.5710 c3         1 PMY       0.167300
     45 OH3         12.3980   -18.0530    21.6950 oh         1 PMY      -0.700000
     46 CD          14.0740   -19.4530    20.7310 c3         1 PMY      -0.087100
     47 C40         11.0090   -17.7870    19.0440 c          1 PMY       0.578100
     48 O40         10.2030   -18.6810    18.7920 o          1 PMY      -0.597100
     49 NM          10.6650   -16.5030    19.2140 ns         1 PMY      -0.497900
     50 C41          9.2950   -16.0370    19.1090 c3         1 PMY       0.103000
     51 C42          8.8560   -15.7800    17.6620 c3         1 PMY      -0.130700
     52 C43          9.5670   -14.6040    17.0760 cc         1 PMY       0.420700
     53 S43         10.6680   -14.7500    15.7380 ss         1 PMY       0.025600
     54 C44         10.9770   -13.0700    15.8070 cc         1 PMY      -0.206000
     55 NN           9.4650   -13.3900    17.5320 nd         1 PMY      -0.661000
     56 C45         10.2530   -12.5110    16.8260 cd         1 PMY       0.213000
     57 C46         10.2750   -11.1130    17.2150 cd         1 PMY       0.412400
     58 S46          9.3160   -10.5430    18.5580 ss         1 PMY       0.033600
     59 C47          9.9140    -8.9640    18.2800 cd         1 PMY      -0.272000
     60 NO          10.9750   -10.1820    16.6320 nc         1 PMY      -0.592000
     61 C48         10.7900    -8.9600    17.2260 cc         1 PMY       0.252500
     62 C49         11.5500    -7.7950    16.6800 c          1 PMY       0.528600
     63 O49         12.1210    -7.8720    15.5880 o          1 PMY      -0.579100
     64 NP          11.5630    -6.6840    17.4380 ns         1 PMY      -0.504900
     65 C51         12.2420    -5.4530    17.0580 c3         1 PMY       0.103000
     66 C52         13.6080    -5.2840    17.7230 c3         1 PMY      -0.139400
     67 C53         14.6160    -6.3990    17.4090 c3         1 PMY       0.167800
     68 NQ          14.9010    -6.6610    15.9990 n7         1 PMY      -0.878400
     69 CE          16.8820    -5.2540    15.5710 c3         1 PMY      -0.082100
     70 C54         15.4170    -5.5310    15.2190 c3         1 PMY       0.226800
     71 C56         15.2640    -5.8190    13.7400 ca         1 PMY      -0.089300
     72 C57         15.6250    -7.0570    13.2020 ca         1 PMY      -0.095000
     73 C58         15.5070    -7.3000    11.8380 ca         1 PMY      -0.115000
     74 C59         15.0300    -6.3070    10.9870 ca         1 PMY      -0.110000
     75 C60         14.6700    -5.0700    11.5120 ca         1 PMY      -0.115000
     76 C61         14.7850    -4.8330    12.8790 ca         1 PMY      -0.095000
     77 HA1         11.3800   -11.9300    27.4320 hn         1 PMY       0.315500
     78 HA2         12.6970   -13.0160    27.7180 hn         1 PMY       0.315500
     79 H2          13.2140   -14.6600    26.4490 h1         1 PMY       0.055700
     80 HB1         10.7950   -16.0720    25.6450 hn         1 PMY       0.404000
     81 HB2         12.1690   -16.7220    26.2160 hn         1 PMY       0.404000
     82 H3E         13.7450   -15.4780    24.4600 h1         1 PMY       0.050700
     83 H3X         13.3410   -13.8080    24.1600 h1         1 PMY       0.050700
     84 HNC         12.4130   -16.2140    22.9540 hn         1 PMY       0.472000
     85 HD1          8.1930   -13.7160    22.0370 hn         1 PMY       0.326000
     86 HD2          7.1070   -14.8370    21.2270 hn         1 PMY       0.326000
     87 H5E          9.9020   -16.2370    23.8850 hc         1 PMY       0.086200
     88 H5X          9.3300   -14.5760    24.1300 hc         1 PMY       0.086200
     89 H6          10.9070   -15.2790    21.6710 h1         1 PMY       0.045700
     90 HF1          8.5820    -9.6870    22.1090 hn         1 PMY       0.499000
     91 HF2          7.8540   -11.1970    22.4960 hn         1 PMY       0.499000
     92 HAA         11.4230    -8.8760    20.6980 hc         1 PMY       0.048700
     93 HAB         11.8550    -8.6940    22.3810 hc         1 PMY       0.048700
     94 HAC         10.1620    -8.6720    21.9090 hc         1 PMY       0.048700
     95 HNH         14.3020   -12.7930    21.8670 hn         1 PMY       0.378500
     96 H13         16.1240   -10.5840    21.1720 h1         1 PMY       0.115700
     97 H14         17.8630   -12.3060    21.2080 h1         1 PMY       0.067700
     98 HO1         17.5720   -12.5800    23.5590 ho         1 PMY       0.445000
     99 H28         18.4030   -14.9560    20.7110 h4         1 PMY       0.170000
    100 H29         14.8060   -16.5280    22.2470 h5         1 PMY       0.068100
    101 HNI         17.0310   -17.0570    21.1440 hn         1 PMY       0.358000
    102 HNK         14.1650   -12.6810    19.4410 hn         1 PMY       0.318500
    103 H31         15.9800   -12.9650    17.1550 h1         1 PMY       0.083700
    104 HBA         14.3240   -11.9220    15.5900 hc         1 PMY       0.055367
    105 HBB         14.9460   -10.7610    16.7730 hc         1 PMY       0.055367
    106 HBC         13.3290   -11.4520    16.9770 hc         1 PMY       0.055367
    107 H33         13.1390   -13.9360    17.6340 h1         1 PMY       0.027700
    108 HO2         13.8200   -15.3450    15.8580 ho         1 PMY       0.476000
    109 H34         14.7550   -14.9440    19.1880 hc         1 PMY       0.067700
    110 HCA         16.1860   -16.0200    16.7040 hc         1 PMY       0.047367
    111 HCB         16.5020   -16.5170    18.3720 hc         1 PMY       0.047367
    112 HCC         16.8560   -14.8670    17.8680 hc         1 PMY       0.047367
    113 HNL         13.6780   -16.5860    20.0630 hn         1 PMY       0.330500
    114 H37         12.7440   -18.8160    18.4320 h1         1 PMY       0.109700
    115 H38         11.9540   -19.7270    20.5540 h1         1 PMY       0.074700
    116 HO3         11.4420   -17.9670    21.8010 ho         1 PMY       0.467000
    117 HDA         14.3210   -20.1000    19.8880 hc         1 PMY       0.045367
    118 HDB         14.1370   -20.0350    21.6500 hc         1 PMY       0.045367
    119 HDC         14.8120   -18.6520    20.7770 hc         1 PMY       0.045367
    120 HNM         11.3960   -15.8310    19.3910 hn         1 PMY       0.320500
    121 H1E          9.2200   -15.1120    19.6750 h1         1 PMY       0.073700
    122 H1X          8.6390   -16.7700    19.5720 h1         1 PMY       0.073700
    123 H2E          7.7820   -15.5760    17.6620 hc         1 PMY       0.077700
    124 H2X          9.0260   -16.6690    17.0560 hc         1 PMY       0.077700
    125 H44         11.6640   -12.5870    15.1330 h4         1 PMY       0.191000
    126 H47          9.5720    -8.1380    18.8810 h4         1 PMY       0.153000
    127 HNP         11.1270    -6.7110    18.3460 hn         1 PMY       0.309500
    128 H6E         11.5970    -4.6180    17.3330 h1         1 PMY       0.056700
    129 H6X         12.3390    -5.4560    15.9740 h1         1 PMY       0.056700
    130 H7E         13.4780    -5.2400    18.8090 hc         1 PMY       0.045200
    131 H7X         14.0050    -4.3110    17.4200 hc         1 PMY       0.045200
    132 H8E         14.2510    -7.3360    17.8310 h1         1 PMY       0.055200
    133 H8X         15.5490    -6.1720    17.9300 h1         1 PMY       0.055200
    134 HNQ         14.0560    -7.0160    15.5630 hn         1 PMY       0.447000
    135 HEA         17.4980    -6.1240    15.3340 hc         1 PMY       0.037033
    136 HEB         16.9940    -5.0310    16.6340 hc         1 PMY       0.037033
    137 HEC         17.2540    -4.3970    15.0060 hc         1 PMY       0.037033
    138 H54         14.8510    -4.6110    15.4200 h1         1 PMY       0.014700
    139 H57         15.9980    -7.8320    13.8590 ha         1 PMY       0.116500
    140 H58         15.7880    -8.2670    11.4390 ha         1 PMY       0.109000
    141 H59         14.9380    -6.4970     9.9250 ha         1 PMY       0.108000
    142 H60         14.2930    -4.2920    10.8600 ha         1 PMY       0.109000
    143 H61         14.4950    -3.8700    13.2850 ha         1 PMY       0.116500
    144 C4           8.4920   -15.6750    22.4640 c          1 PMY       0.588100
@<TRIPOS>BOND
     1     1     2 1   
     2     1    77 1   
     3     1    78 1   
     4     2     3 2   
     5     2     4 1   
     6     4     5 1   
     7     4     6 1   
     8     4    79 1   
     9     5    80 1   
    10     5    81 1   
    11     6     7 1   
    12     6    82 1   
    13     6    83 1   
    14     7    11 1   
    15     7    84 1   
    16     8    85 1   
    17     8    86 1   
    18     8   144 1   
    19     9   144 2   
    20    10    11 1   
    21    10    87 1   
    22    10    88 1   
    23    10   144 1   
    24    11    12 1   
    25    11    89 1   
    26    12    13 ar  
    27    12    15 ar  
    28    13    14 ar  
    29    14    17 ar  
    30    14    18 1   
    31    15    16 ar  
    32    16    17 ar  
    33    16    20 1   
    34    17    19 1   
    35    18    90 1   
    36    18    91 1   
    37    19    92 1   
    38    19    93 1   
    39    19    94 1   
    40    20    21 2   
    41    20    22 1   
    42    22    23 1   
    43    22    95 1   
    44    23    24 1   
    45    23    31 1   
    46    23    96 1   
    47    24    25 1   
    48    24    26 1   
    49    24    97 1   
    50    25    98 1   
    51    26    27 1   
    52    26    28 2   
    53    27    29 2   
    54    28    30 1   
    55    28    99 1   
    56    29    30 1   
    57    29   100 1   
    58    30   101 1   
    59    31    32 2   
    60    31    33 1   
    61    33    34 1   
    62    33   102 1   
    63    34    35 1   
    64    34    36 1   
    65    34   103 1   
    66    35   104 1   
    67    35   105 1   
    68    35   106 1   
    69    36    37 1   
    70    36    38 1   
    71    36   107 1   
    72    37   108 1   
    73    38    39 1   
    74    38    40 1   
    75    38   109 1   
    76    39   110 1   
    77    39   111 1   
    78    39   112 1   
    79    40    41 2   
    80    40    42 1   
    81    42    43 1   
    82    42   113 1   
    83    43    44 1   
    84    43    47 1   
    85    43   114 1   
    86    44    45 1   
    87    44    46 1   
    88    44   115 1   
    89    45   116 1   
    90    46   117 1   
    91    46   118 1   
    92    46   119 1   
    93    47    48 2   
    94    47    49 1   
    95    49    50 1   
    96    49   120 1   
    97    50    51 1   
    98    50   121 1   
    99    50   122 1   
   100    51    52 1   
   101    51   123 1   
   102    51   124 1   
   103    52    53 1   
   104    52    55 2   
   105    53    54 1   
   106    54    56 2   
   107    54   125 1   
   108    55    56 1   
   109    56    57 1   
   110    57    58 1   
   111    57    60 2   
   112    58    59 1   
   113    59    61 2   
   114    59   126 1   
   115    60    61 1   
   116    61    62 1   
   117    62    63 2   
   118    62    64 1   
   119    64    65 1   
   120    64   127 1   
   121    65    66 1   
   122    65   128 1   
   123    65   129 1   
   124    66    67 1   
   125    66   130 1   
   126    66   131 1   
   127    67    68 1   
   128    67   132 1   
   129    67   133 1   
   130    68    70 1   
   131    68   134 1   
   132    69    70 1   
   133    69   135 1   
   134    69   136 1   
   135    69   137 1   
   136    70    71 1   
   137    70   138 1   
   138    71    72 ar  
   139    71    76 ar  
   140    72    73 ar  
   141    72   139 1   
   142    73    74 ar  
   143    73   140 1   
   144    74    75 ar  
   145    74   141 1   
   146    75    76 ar  
   147    75   142 1   
   148    76   143 1   
@<TRIPOS>SUBSTRUCTURE
     1 PMY         1 TEMP              0 ****  ****    0 ROOT
