@<TRIPOS>MOLECULE
PMZ
   45    47     1     0     0
SMALL
bcc


@<TRIPOS>ATOM
      1 S5          -1.4050     0.5290    -3.1190 ss         1 PMZ      -0.254800
      2 N1           0.4210     0.6060    -0.7190 na         1 PMZ      -0.161100
      3 C1          -1.3900     0.2440     0.8770 ca         1 PMZ      -0.132000
      4 C2          -2.7330    -0.0070     1.1620 ca         1 PMZ      -0.146600
      5 C3          -3.6350    -0.1930     0.1220 ca         1 PMZ      -0.118000
      6 C4          -3.1900    -0.0990    -1.1860 ca         1 PMZ      -0.093000
      7 C5          -1.8630     0.1920    -1.4610 ca         1 PMZ       0.033900
      8 C6          -0.9210     0.3400    -0.4300 ca         1 PMZ       0.071700
      9 C7           0.2630    -0.0250    -3.0660 ca         1 PMZ       0.006900
     10 C8           0.8310    -0.5140    -4.2330 ca         1 PMZ      -0.073000
     11 C9           2.1890    -0.7950    -4.2890 ca         1 PMZ      -0.155000
     12 C10          2.9580    -0.5940    -3.1560 ca         1 PMZ      -0.091000
     13 C11          2.3810    -0.1490    -1.9740 ca         1 PMZ      -0.178000
     14 C12          1.0170     0.1430    -1.8980 ca         1 PMZ       0.084700
     15 CA1          1.2800     1.0700     0.3590 c3         1 PMZ       0.040300
     16 CB1          1.8560    -0.0010     1.2900 c3         1 PMZ      -0.113400
     17 CG           2.6040     0.6720     2.4340 c3         1 PMZ       0.165800
     18 ND           3.3490    -0.2530     3.2670 n3         1 PMZ      -0.711600
     19 CE1          4.2230     0.4660     4.1690 c3         1 PMZ       0.147600
     20 CE2          2.4860    -1.1520     4.0020 c3         1 PMZ       0.147600
     21 CA2         -3.1510    -0.0820     2.5910 c          1 PMZ       0.584700
     22 CB2         -4.5960    -0.3710     2.8900 c3         1 PMZ      -0.195100
     23 OB3         -2.3420     0.0870     3.4790 o          1 PMZ      -0.527100
     24 H1          -0.7220     0.3710     1.7150 ha         1 PMZ       0.157000
     25 H3          -4.6800    -0.4030     0.3060 ha         1 PMZ       0.136000
     26 H4          -3.8870    -0.2260    -2.0040 ha         1 PMZ       0.145000
     27 H8           0.2090    -0.6510    -5.1080 ha         1 PMZ       0.142000
     28 H9           2.6320    -1.1570    -5.2060 ha         1 PMZ       0.137000
     29 H10          4.0210    -0.7950    -3.1740 ha         1 PMZ       0.133000
     30 H11          3.0260    -0.0260    -1.1170 ha         1 PMZ       0.140000
     31 HA11         0.7100     1.7970     0.9440 h1         1 PMZ       0.058200
     32 HA12         2.0940     1.6420    -0.0890 h1         1 PMZ       0.058200
     33 HB11         2.5440    -0.6590     0.7570 hc         1 PMZ       0.059700
     34 HB12         1.0600    -0.6430     1.6710 hc         1 PMZ       0.059700
     35 HG1          1.8940     1.2740     3.0310 h1         1 PMZ       0.030200
     36 HG2          3.3180     1.3810     2.0050 h1         1 PMZ       0.030200
     37 HE11         4.8130    -0.2370     4.7580 h1         1 PMZ       0.031867
     38 HE12         4.9170     1.0900     3.6030 h1         1 PMZ       0.031867
     39 HE13         3.6830     1.1190     4.8730 h1         1 PMZ       0.031867
     40 HE21         1.9010    -1.7760     3.3260 h1         1 PMZ       0.031867
     41 HE22         3.0880    -1.8200     4.6180 h1         1 PMZ       0.031867
     42 HE23         1.7810    -0.6260     4.6670 h1         1 PMZ       0.031867
     43 HB21        -4.7560    -0.4260     3.9650 hc         1 PMZ       0.062700
     44 HB22        -5.2400     0.4080     2.4780 hc         1 PMZ       0.062700
     45 HB23        -4.9060    -1.3140     2.4380 hc         1 PMZ       0.062700
@<TRIPOS>BOND
     1     1     7 1   
     2     1     9 1   
     3     2     8 1   
     4     2    14 1   
     5     2    15 1   
     6     3     4 ar  
     7     3     8 ar  
     8     3    24 1   
     9     4     5 ar  
    10     4    21 1   
    11     5     6 ar  
    12     5    25 1   
    13     6     7 ar  
    14     6    26 1   
    15     7     8 ar  
    16     9    10 ar  
    17     9    14 ar  
    18    10    11 ar  
    19    10    27 1   
    20    11    12 ar  
    21    11    28 1   
    22    12    13 ar  
    23    12    29 1   
    24    13    14 ar  
    25    13    30 1   
    26    15    16 1   
    27    15    31 1   
    28    15    32 1   
    29    16    17 1   
    30    16    33 1   
    31    16    34 1   
    32    17    18 1   
    33    17    35 1   
    34    17    36 1   
    35    18    19 1   
    36    18    20 1   
    37    19    37 1   
    38    19    38 1   
    39    19    39 1   
    40    20    40 1   
    41    20    41 1   
    42    20    42 1   
    43    21    22 1   
    44    21    23 2   
    45    22    43 1   
    46    22    44 1   
    47    22    45 1   
@<TRIPOS>SUBSTRUCTURE
     1 PMZ         1 TEMP              0 ****  ****    0 ROOT
