@<TRIPOS>MOLECULE
PMZ
   45    47     1     0     0
SMALL
No Charge or Current Charge


@<TRIPOS>ATOM
      1 S5          -1.0460     1.4310    -2.7830 ss         1 PMZ       0.035000
      2 N1           0.4440     0.0880    -0.5120 na         1 PMZ      -0.089000
      3 C1          -1.5310    -0.4560     0.8110 ca         1 PMZ      -0.114000
      4 C2          -2.9300    -0.4030     1.0200 ca         1 PMZ      -0.146600
      5 C3          -3.7320     0.2410     0.0480 ca         1 PMZ      -0.100000
      6 C4          -3.1500     0.8050    -1.1000 ca         1 PMZ      -0.075000
      7 C5          -1.7620     0.7410    -1.2950 ca         1 PMZ      -0.111000
      8 C6          -0.9430     0.1170    -0.3340 ca         1 PMZ       0.021000
      9 C7           0.3670     0.3420    -2.9300 ca         1 PMZ      -0.138000
     10 C8           0.8880     0.0490    -4.2030 ca         1 PMZ      -0.055000
     11 C9           1.9770    -0.8280    -4.3320 ca         1 PMZ      -0.137000
     12 C10          2.5450    -1.4170    -3.1910 ca         1 PMZ      -0.073000
     13 C11          2.0290    -1.1210    -1.9170 ca         1 PMZ      -0.160000
     14 C12          0.9420    -0.2350    -1.7770 ca         1 PMZ       0.034000
     15 CA1          1.2950     0.8800     0.4030 c3         1 PMZ       0.069600
     16 CB1          1.9990     0.0590     1.5050 c3         1 PMZ      -0.113400
     17 CG           2.8600     0.9440     2.4320 c3         1 PMZ       0.165800
     18 ND           3.6810     0.1960     3.4170 n3         1 PMZ      -0.711600
     19 CE1          4.6570     1.0720     4.1040 c3         1 PMZ       0.147600
     20 CE2          2.8860    -0.6030     4.3820 c3         1 PMZ       0.147600
     21 CA2         -3.5310    -1.0290     2.2680 c          1 PMZ       0.584700
     22 CB2         -5.0440    -0.9760     2.4900 c3         1 PMZ      -0.195100
     23 OB3         -2.8200    -1.5780     3.1020 o          1 PMZ      -0.527100
     24 H1          -0.8970    -0.9500     1.5420 ha         1 PMZ       0.139000
     25 H3          -4.8110     0.3090     0.1620 ha         1 PMZ       0.118000
     26 H4          -3.7820     1.2870    -1.8430 ha         1 PMZ       0.127000
     27 H8           0.4430     0.4950    -5.0910 ha         1 PMZ       0.124000
     28 H9           2.3770    -1.0560    -5.3180 ha         1 PMZ       0.119000
     29 H10          3.3850    -2.1010    -3.2920 ha         1 PMZ       0.115000
     30 H11          2.4740    -1.5870    -1.0430 ha         1 PMZ       0.122000
     31 HA11         0.6710     1.6500     0.8760 h1         1 PMZ       0.058200
     32 HA12         2.0540     1.4020    -0.1940 h1         1 PMZ       0.058200
     33 HB11         2.6420    -0.7000     1.0470 hc         1 PMZ       0.059700
     34 HB12         1.2460    -0.4680     2.0990 hc         1 PMZ       0.059700
     35 HG1          2.2020     1.6520     2.9540 h1         1 PMZ       0.030200
     36 HG2          3.5260     1.5390     1.7920 h1         1 PMZ       0.030200
     37 HE11         5.3090     0.4850     4.7650 h1         1 PMZ       0.031867
     38 HE12         5.2960     1.5890     3.3750 h1         1 PMZ       0.031867
     39 HE13         4.1450     1.8300     4.7110 h1         1 PMZ       0.031867
     40 HE21         2.2890    -1.3680     3.8700 h1         1 PMZ       0.031867
     41 HE22         3.5450    -1.1230     5.0890 h1         1 PMZ       0.031867
     42 HE23         2.2060     0.0410     4.9570 h1         1 PMZ       0.031867
     43 HB21        -5.3500    -1.4640     3.4220 hc         1 PMZ       0.062700
     44 HB22        -5.3730     0.0690     2.4580 hc         1 PMZ       0.062700
     45 HB23        -5.5480    -1.4160     1.6230 hc         1 PMZ       0.062700
@<TRIPOS>BOND
     1     1     7 1   
     2     1     9 1   
     3     2     8 1   
     4     2    14 1   
     5     2    15 1   
     6     3     4 ar  
     7     3     8 ar  
     8     3    24 1   
     9     4     5 ar  
    10     4    21 1   
    11     5     6 ar  
    12     5    25 1   
    13     6     7 ar  
    14     6    26 1   
    15     7     8 ar  
    16     9    10 ar  
    17     9    14 ar  
    18    10    11 ar  
    19    10    27 1   
    20    11    12 ar  
    21    11    28 1   
    22    12    13 ar  
    23    12    29 1   
    24    13    14 ar  
    25    13    30 1   
    26    15    16 1   
    27    15    31 1   
    28    15    32 1   
    29    16    17 1   
    30    16    33 1   
    31    16    34 1   
    32    17    18 1   
    33    17    35 1   
    34    17    36 1   
    35    18    19 1   
    36    18    20 1   
    37    19    37 1   
    38    19    38 1   
    39    19    39 1   
    40    20    40 1   
    41    20    41 1   
    42    20    42 1   
    43    21    22 1   
    44    21    23 2   
    45    22    43 1   
    46    22    44 1   
    47    22    45 1   
@<TRIPOS>SUBSTRUCTURE
     1 PMZ         1 TEMP              0 ****  ****    0 ROOT
