@<TRIPOS>MOLECULE
PN0
   49    51     1     0     0
SMALL
No Charge or Current Charge


@<TRIPOS>ATOM
      1 N1          -1.7770     0.1580    -0.6800 n3         1 PN0      -0.775500
      2 N3          -3.1000    -3.0410     0.5800 ns         1 PN0      -0.389400
      3 C4          -3.2740     2.0400    -1.4410 c6         1 PN0       0.024600
      4 C5           0.5640     0.8790     0.4890 ca         1 PN0      -0.279500
      5 C6           1.0540     2.1970     0.5950 ca         1 PN0      -0.008500
      6 C7           2.3950     2.4720     0.2770 ca         1 PN0      -0.138500
      7 C8           3.2490     1.4380    -0.1400 ca         1 PN0       0.150100
      8 C10          1.4160    -0.1560     0.0540 ca         1 PN0      -0.008500
      9 C13          7.7900     0.0180    -0.6180 ca         1 PN0       0.364400
     10 C15          5.6390     0.2070     1.0820 ca         1 PN0      -0.215500
     11 C17         -4.6550    -0.1460     0.8280 c3         1 PN0      -0.090600
     12 C1          -4.3060    -0.5120    -0.6480 c6         1 PN0       0.116000
     13 C2          -2.7940    -0.9520    -0.8990 c6         1 PN0       0.150500
     14 C3          -1.9270     1.3010    -1.6140 c6         1 PN0       0.208800
     15 S1          -4.7660     0.9650    -1.6920 ss         1 PN0      -0.452000
     16 S2          -1.1520     0.5070     0.8780 sy         1 PN0       1.159600
     17 C9           2.7560     0.1250    -0.2630 ca         1 PN0      -0.138500
     18 O1           4.5540     1.7400    -0.4580 os         1 PN0      -0.255200
     19 C11          5.6110     0.9270    -0.1220 ca         1 PN0       0.170100
     20 C12          6.7120     0.8370    -0.9800 ca         1 PN0      -0.215500
     21 N2           7.8200    -0.6890     0.5360 nb         1 PN0      -0.680000
     22 C14          6.7580    -0.5890     1.3680 ca         1 PN0       0.364400
     23 O2          -1.8370     1.6990     1.3850 o          1 PN0      -0.526000
     24 O3          -1.1650    -0.7520     1.6260 o          1 PN0      -0.526000
     25 C16         -2.3320    -2.3760    -0.3790 c          1 PN0       0.617100
     26 O4          -2.8640    -4.4370     0.8940 oh         1 PN0      -0.424100
     27 O5          -1.2960    -2.8840    -0.8000 o          1 PN0      -0.526100
     28 C18         -5.3150    -1.6070    -1.1260 c3         1 PN0      -0.090600
     29 HN3         -4.0040    -2.6690     0.8590 hn         1 PN0       0.333500
     30 H4          -3.3370     2.4860    -0.4410 h1         1 PN0       0.091200
     31 H4A         -3.3280     2.8650    -2.1650 h1         1 PN0       0.091200
     32 H6           0.4040     3.0090     0.9200 ha         1 PN0       0.146500
     33 H7           2.7750     3.4870     0.3570 ha         1 PN0       0.138500
     34 H10          1.0400    -1.1740    -0.0480 ha         1 PN0       0.146500
     35 H15          4.8190     0.2600     1.7910 ha         1 PN0       0.138000
     36 H17         -4.2010     0.8010     1.1290 hc         1 PN0       0.057700
     37 H17A        -5.7370    -0.0170     0.9570 hc         1 PN0       0.057700
     38 H17B        -4.3320    -0.9060     1.5470 hc         1 PN0       0.057700
     39 H2          -2.7800    -1.1460    -1.9810 h1         1 PN0       0.083700
     40 H3          -1.1030     2.0190    -1.4920 h1         1 PN0       0.065200
     41 H3A         -1.8670     0.9400    -2.6510 h1         1 PN0       0.065200
     42 H9           3.4050    -0.6740    -0.6100 ha         1 PN0       0.138500
     43 H12          6.7340     1.3880    -1.9150 ha         1 PN0       0.138000
     44 H14          6.8090    -1.1620     2.2930 h4         1 PN0       0.022600
     45 HO4         -2.7520    -4.4410     1.8740 ho         1 PN0       0.448000
     46 H18         -6.3410    -1.2180    -1.1400 hc         1 PN0       0.057700
     47 H18A        -5.0880    -1.9390    -2.1460 hc         1 PN0       0.057700
     48 H18B        -5.3390    -2.4940    -0.4870 hc         1 PN0       0.057700
     49 H13          8.6590    -0.0760    -1.2680 h4         1 PN0       0.022600
@<TRIPOS>BOND
     1     1    13 1   
     2     1    14 1   
     3     1    16 1   
     4     2    25 1   
     5     2    26 1   
     6     2    29 1   
     7     3    14 1   
     8     3    15 1   
     9     3    30 1   
    10     3    31 1   
    11     4     5 ar  
    12     4     8 ar  
    13     4    16 1   
    14     5     6 ar  
    15     5    32 1   
    16     6     7 ar  
    17     6    33 1   
    18     7    17 ar  
    19     7    18 1   
    20     8    17 ar  
    21     8    34 1   
    22     9    20 ar  
    23     9    21 ar  
    24     9    49 1   
    25    10    19 ar  
    26    10    22 ar  
    27    10    35 1   
    28    11    12 1   
    29    11    36 1   
    30    11    37 1   
    31    11    38 1   
    32    12    13 1   
    33    12    15 1   
    34    12    28 1   
    35    13    25 1   
    36    13    39 1   
    37    14    40 1   
    38    14    41 1   
    39    16    23 2   
    40    16    24 2   
    41    17    42 1   
    42    18    19 1   
    43    19    20 ar  
    44    20    43 1   
    45    21    22 ar  
    46    22    44 1   
    47    25    27 2   
    48    26    45 1   
    49    28    46 1   
    50    28    47 1   
    51    28    48 1   
@<TRIPOS>SUBSTRUCTURE
     1 PN0         1 TEMP              0 ****  ****    0 ROOT
