@<TRIPOS>MOLECULE
PN0
   49    51     1     0     0
SMALL
bcc


@<TRIPOS>ATOM
      1 N1          -2.0470     0.2200    -0.4830 n3         1 PN0      -0.775500
      2 N3          -1.6530    -2.6100    -0.7400 ns         1 PN0      -0.456400
      3 C4          -3.4370     2.2040    -0.9960 c6         1 PN0      -0.023300
      4 C5           0.5270     0.4490     0.2390 ca         1 PN0      -0.279500
      5 C6           1.1430     1.6460    -0.1030 ca         1 PN0      -0.026500
      6 C7           2.4300     1.6270    -0.6160 ca         1 PN0      -0.156500
      7 C8           3.0820     0.4150    -0.7700 ca         1 PN0       0.150100
      8 C10          1.1900    -0.7640     0.1000 ca         1 PN0      -0.026500
      9 C13          7.7860     0.2370    -0.3350 ca         1 PN0       0.429700
     10 C15          5.3650     0.4500     0.8700 ca         1 PN0      -0.298800
     11 C17         -4.5180     0.1230     1.4640 c3         1 PN0      -0.090600
     12 C1          -4.4950    -0.2520    -0.0110 c6         1 PN0       0.068100
     13 C2          -3.1390    -0.7600    -0.5360 c6         1 PN0       0.150500
     14 C3          -2.2230     1.3750    -1.3640 c6         1 PN0       0.208800
     15 S1          -4.9490     1.2100    -1.0490 ss         1 PN0      -0.356200
     16 S2          -1.1260     0.4620     0.8770 sy         1 PN0       1.301200
     17 C9           2.4780    -0.7810    -0.4060 ca         1 PN0      -0.156500
     18 O1           4.3340     0.3960    -1.3230 os         1 PN0      -0.255200
     19 C11          5.4190     0.3680    -0.5150 ca         1 PN0       0.170100
     20 C12          6.6590     0.2590    -1.1340 ca         1 PN0      -0.298800
     21 N2           7.7590     0.3130     0.9940 nb         1 PN0      -0.680000
     22 C14          6.5660     0.4170     1.5640 ca         1 PN0       0.429700
     23 O2          -1.3500     1.7880     1.4330 o          1 PN0      -0.596800
     24 O3          -1.3050    -0.7060     1.7220 o          1 PN0      -0.596800
     25 C16         -2.6930    -2.1400    -0.0210 c          1 PN0       0.684100
     26 O4          -0.9900    -3.7180    -0.3060 oh         1 PN0      -0.385100
     27 O5          -3.2620    -2.7820     0.8340 o          1 PN0      -0.526100
     28 C18         -5.6040    -1.2550    -0.3300 c3         1 PN0      -0.090600
     29 HN3         -1.1210    -2.0160    -1.3610 hn         1 PN0       0.333500
     30 H4          -3.3130     2.6710    -0.0190 h1         1 PN0       0.091200
     31 H4A         -3.5760     2.9980    -1.7300 h1         1 PN0       0.091200
     32 H6           0.6410     2.5940     0.0340 ha         1 PN0       0.164500
     33 H7           2.9180     2.5520    -0.8940 ha         1 PN0       0.156500
     34 H10          0.7310    -1.6970     0.3950 ha         1 PN0       0.164500
     35 H15          4.4370     0.5420     1.4170 ha         1 PN0       0.156000
     36 H17         -3.8380     0.9360     1.7080 hc         1 PN0       0.057700
     37 H17A        -5.5210     0.4490     1.7380 hc         1 PN0       0.057700
     38 H17B        -4.2570    -0.7340     2.0820 hc         1 PN0       0.057700
     39 H2          -3.2870    -0.9090    -1.6130 h1         1 PN0       0.083700
     40 H3          -1.3240     1.9920    -1.3540 h1         1 PN0       0.065200
     41 H3A         -2.3210     0.9890    -2.3810 h1         1 PN0       0.065200
     42 H9           3.0040    -1.7190    -0.5230 ha         1 PN0       0.156500
     43 H12          6.7430     0.1940    -2.2110 ha         1 PN0       0.156000
     44 H14          6.5480     0.4810     2.6460 h4         1 PN0       0.022600
     45 HO4         -1.2960    -4.4480    -0.8600 ho         1 PN0       0.409000
     46 H18         -6.5820    -0.7810    -0.2210 hc         1 PN0       0.057700
     47 H18A        -5.5280    -1.6290    -1.3520 hc         1 PN0       0.057700
     48 H18B        -5.5750    -2.1010     0.3520 hc         1 PN0       0.057700
     49 H13          8.7640     0.1520    -0.7960 h4         1 PN0       0.022600
@<TRIPOS>BOND
     1     1    13 1   
     2     1    14 1   
     3     1    16 1   
     4     2    25 1   
     5     2    26 1   
     6     2    29 1   
     7     3    14 1   
     8     3    15 1   
     9     3    30 1   
    10     3    31 1   
    11     4     5 ar  
    12     4     8 ar  
    13     4    16 1   
    14     5     6 ar  
    15     5    32 1   
    16     6     7 ar  
    17     6    33 1   
    18     7    17 ar  
    19     7    18 1   
    20     8    17 ar  
    21     8    34 1   
    22     9    20 ar  
    23     9    21 ar  
    24     9    49 1   
    25    10    19 ar  
    26    10    22 ar  
    27    10    35 1   
    28    11    12 1   
    29    11    36 1   
    30    11    37 1   
    31    11    38 1   
    32    12    13 1   
    33    12    15 1   
    34    12    28 1   
    35    13    25 1   
    36    13    39 1   
    37    14    40 1   
    38    14    41 1   
    39    16    23 2   
    40    16    24 2   
    41    17    42 1   
    42    18    19 1   
    43    19    20 ar  
    44    20    43 1   
    45    21    22 ar  
    46    22    44 1   
    47    25    27 2   
    48    26    45 1   
    49    28    46 1   
    50    28    47 1   
    51    28    48 1   
@<TRIPOS>SUBSTRUCTURE
     1 PN0         1 TEMP              0 ****  ****    0 ROOT
