@<TRIPOS>MOLECULE
PN1
   42    44     1     0     0
SMALL
abcg2


@<TRIPOS>ATOM
      1 C8          -2.0400     1.5790    -3.7070 ca         1 PN1      -0.106500
      2 C5           0.0880     0.4350    -3.6620 ca         1 PN1      -0.136300
      3 C6          -0.3040     1.2320     2.9660 c5         1 PN1       0.165000
      4 N1           1.3020    -0.1240    -1.0230 ns         1 PN1      -0.474900
      5 N3           0.1620    -0.8860     1.9200 nj         1 PN1      -0.308800
      6 C4           1.5770     0.4290    -3.3550 c3         1 PN1       0.127800
      7 C3           1.8310    -0.5350    -2.1960 c          1 PN1       0.614100
      8 C7          -0.6780     1.5710    -3.4290 ca         1 PN1      -0.096000
      9 C9          -2.6480     0.4450    -4.2240 ca         1 PN1      -0.103000
     10 C10         -1.8880    -0.6960    -4.4620 ca         1 PN1      -0.106500
     11 C11         -0.5300    -0.7000    -4.1840 ca         1 PN1      -0.096000
     12 C12         -0.8280    -0.2200     2.7430 c5         1 PN1      -0.045300
     13 C13          1.3470    -0.1440     1.5200 cy         1 PN1       0.211700
     14 C14          1.3150    -0.8990     0.1690 cy         1 PN1       0.001700
     15 C15         -0.0440    -1.4110     0.6780 c          1 PN1       0.528000
     16 N2           2.4470     0.0960    -4.4610 n8         1 PN1      -0.977200
     17 O3           2.4380    -1.5820    -2.3310 o          1 PN1      -0.594100
     18 O4          -0.9850    -1.9800     0.1900 o          1 PN1      -0.502000
     19 S1           0.7840     1.5780     1.5030 ss         1 PN1      -0.601000
     20 H8          -2.6220     2.4720    -3.5210 ha         1 PN1       0.112000
     21 H1           0.7300     0.7090    -1.0200 hn         1 PN1       0.332500
     22 H4           1.8480     1.4320    -3.0110 h1         1 PN1       0.077700
     23 H1C1         0.9860     2.3670     4.2740 hc         1 PN1       0.044700
     24 H1C2        -0.0740     1.2450     5.1180 hc         1 PN1       0.044700
     25 H1C3         1.3510     0.6410     4.2730 hc         1 PN1       0.044700
     26 H7          -0.2070     2.4640    -3.0310 ha         1 PN1       0.116000
     27 H9          -3.7080     0.4470    -4.4420 ha         1 PN1       0.110000
     28 H10         -2.3570    -1.5840    -4.8650 ha         1 PN1       0.112000
     29 H11          0.0460    -1.5990    -4.3730 ha         1 PN1       0.116000
     30 H12         -1.7540    -0.1620     2.1610 h1         1 PN1       0.060700
     31 H13          2.2300    -0.2830     2.1420 h2         1 PN1       0.106700
     32 H14          2.0760    -1.6760     0.1030 h1         1 PN1       0.110700
     33 H161        -1.0620     3.2600     3.0770 hc         1 PN1       0.044700
     34 H162        -2.0280     2.1860     2.0550 hc         1 PN1       0.044700
     35 H163        -2.1010     2.0410     3.8130 hc         1 PN1       0.044700
     36 H2N1         2.2710    -0.8470    -4.7850 hn         1 PN1       0.402500
     37 H2N2         2.2380     0.7090    -5.2380 hn         1 PN1       0.402500
     38 C1           0.5440     1.3720     4.2280 c3         1 PN1      -0.076600
     39 C2          -1.1350    -0.9370     4.0790 c          1 PN1       0.734000
     40 O1          -0.3320    -1.8000     4.4590 o          1 PN1      -0.704000
     41 O2          -2.1750    -0.5510     4.6470 o          1 PN1      -0.704000
     42 C16         -1.4400     2.2430     2.9710 c3         1 PN1      -0.076600
@<TRIPOS>BOND
     1     1     8 ar  
     2     1     9 ar  
     3     1    20 1   
     4     2     6 1   
     5     2     8 ar  
     6     2    11 ar  
     7     3    12 1   
     8     3    19 1   
     9     3    38 1   
    10     3    42 1   
    11     4     7 1   
    12     4    14 1   
    13     4    21 1   
    14     5    12 1   
    15     5    13 1   
    16     5    15 1   
    17     6     7 1   
    18     6    16 1   
    19     6    22 1   
    20     7    17 2   
    21     8    26 1   
    22     9    10 ar  
    23     9    27 1   
    24    10    11 ar  
    25    10    28 1   
    26    11    29 1   
    27    12    30 1   
    28    12    39 1   
    29    13    14 1   
    30    13    19 1   
    31    13    31 1   
    32    14    15 1   
    33    14    32 1   
    34    15    18 2   
    35    16    36 1   
    36    16    37 1   
    37    23    38 1   
    38    24    38 1   
    39    25    38 1   
    40    33    42 1   
    41    34    42 1   
    42    35    42 1   
    43    39    40 1   
    44    39    41 1   
@<TRIPOS>SUBSTRUCTURE
     1 PN1         1 TEMP              0 ****  ****    0 ROOT
