@<TRIPOS>MOLECULE
PN1
   42    44     1     0     0
SMALL
No Charge or Current Charge


@<TRIPOS>ATOM
      1 C8          -1.6590     2.0320    -4.1730 ca         1 PN1      -0.106500
      2 C5           0.1460     0.4270    -3.8060 ca         1 PN1      -0.136300
      3 C6          -0.5660     1.1440     3.0690 c5         1 PN1       0.165000
      4 N1           1.5660    -0.0900    -1.0360 ns         1 PN1      -0.474900
      5 N3           0.3680    -0.8380     1.9950 nj         1 PN1      -0.308800
      6 C4           1.6180     0.1360    -3.5200 c3         1 PN1       0.127800
      7 C3           1.7710    -0.7550    -2.2280 c          1 PN1       0.614100
      8 C7          -0.3040     1.7590    -3.9210 ca         1 PN1      -0.096000
      9 C9          -2.5760     0.9770    -4.3130 ca         1 PN1      -0.103000
     10 C10         -2.1370    -0.3520    -4.2010 ca         1 PN1      -0.106500
     11 C11         -0.7810    -0.6270    -3.9490 ca         1 PN1      -0.096000
     12 C12         -0.7240    -0.4100     2.8860 c5         1 PN1      -0.045300
     13 C13          1.3710     0.1380     1.5570 cy         1 PN1       0.211700
     14 C14          1.5780    -0.7320     0.2680 cy         1 PN1       0.001700
     15 C15          0.3000    -1.4890     0.7600 c          1 PN1       0.528000
     16 N2           2.2670    -0.3730    -4.7730 n8         1 PN1      -0.977200
     17 O3           2.0390    -1.9530    -2.2580 o          1 PN1      -0.594100
     18 O4          -0.4950    -2.2870     0.2800 o          1 PN1      -0.502000
     19 S1           0.3110     1.6520     1.5090 ss         1 PN1      -0.601000
     20 H8          -1.9990     3.0620    -4.2600 ha         1 PN1       0.112000
     21 H1           1.3150     0.8910    -1.1060 hn         1 PN1       0.332500
     22 H4           2.1100     1.0870    -3.2730 h1         1 PN1       0.077700
     23 H1C1         0.5070     2.6660     4.2400 hc         1 PN1       0.044700
     24 H1C2        -0.1830     1.3770     5.2290 hc         1 PN1       0.044700
     25 H1C3         1.2800     1.0780     4.2800 hc         1 PN1       0.044700
     26 H7           0.3960     2.5860    -3.8150 ha         1 PN1       0.116000
     27 H9          -3.6250     1.1900    -4.5080 ha         1 PN1       0.110000
     28 H10         -2.8460    -1.1700    -4.3090 ha         1 PN1       0.112000
     29 H11         -0.4560    -1.6620    -3.8630 ha         1 PN1       0.116000
     30 H12         -1.6640    -0.6380     2.3700 h1         1 PN1       0.060700
     31 H13          2.2300     0.2690     2.2250 h2         1 PN1       0.106700
     32 H14          2.4620    -1.3740     0.3380 h1         1 PN1       0.110700
     33 H161        -1.7840     2.9710     3.1590 hc         1 PN1       0.044700
     34 H162        -2.5420     1.6500     2.2580 hc         1 PN1       0.044700
     35 H163        -2.4890     1.5960     4.0270 hc         1 PN1       0.044700
     36 H2N1         1.8300    -1.2670    -5.0260 hn         1 PN1       0.402500
     37 H2N2         2.0120     0.2480    -5.5500 hn         1 PN1       0.402500
     38 C1           0.3100     1.5880     4.2730 c3         1 PN1      -0.076600
     39 C2          -0.7650    -1.1380     4.2650 c          1 PN1       0.734000
     40 O1           0.2470    -1.6700     4.7040 o          1 PN1      -0.704000
     41 O2          -1.8430    -1.2470     4.8310 o          1 PN1      -0.704000
     42 C16         -1.9230     1.8830     3.1330 c3         1 PN1      -0.076600
@<TRIPOS>BOND
     1     1     8 ar  
     2     1     9 ar  
     3     1    20 1   
     4     2     6 1   
     5     2     8 ar  
     6     2    11 ar  
     7     3    12 1   
     8     3    19 1   
     9     3    38 1   
    10     3    42 1   
    11     4     7 1   
    12     4    14 1   
    13     4    21 1   
    14     5    12 1   
    15     5    13 1   
    16     5    15 1   
    17     6     7 1   
    18     6    16 1   
    19     6    22 1   
    20     7    17 2   
    21     8    26 1   
    22     9    10 ar  
    23     9    27 1   
    24    10    11 ar  
    25    10    28 1   
    26    11    29 1   
    27    12    30 1   
    28    12    39 1   
    29    13    14 1   
    30    13    19 1   
    31    13    31 1   
    32    14    15 1   
    33    14    32 1   
    34    15    18 2   
    35    16    36 1   
    36    16    37 1   
    37    23    38 1   
    38    24    38 1   
    39    25    38 1   
    40    33    42 1   
    41    34    42 1   
    42    35    42 1   
    43    39    40 1   
    44    39    41 1   
@<TRIPOS>SUBSTRUCTURE
     1 PN1         1 TEMP              0 ****  ****    0 ROOT
