@<TRIPOS>MOLECULE
PN2
   52    51     1     0     0
SMALL
No Charge or Current Charge


@<TRIPOS>ATOM
      1 CA          -1.3390    -0.1700    -6.1480 c2         1 PN2      -0.264300
      2 N           -2.0050    -0.2050    -7.4180 nv         1 PN2      -0.879000
      3 C           -0.5340    -1.0530    -6.7500 c1         1 PN2       0.568600
      4 O            0.1970    -1.8430    -7.2450 o          1 PN2      -0.385500
      5 CB          -0.8820     1.1710    -5.5940 c3         1 PN2       0.317800
      6 O5          -0.0140     0.8860    -4.5050 os         1 PN2      -0.593400
      7 P6           0.4870     2.1170    -3.6060 p5         1 PN2       1.388800
      8 O7          -0.5310     2.5250    -2.5950 o          1 PN2      -0.826500
      9 O8           0.9120     3.2640    -4.4620 o          1 PN2      -0.826500
     10 O9           1.7880     1.4320    -2.9380 os         1 PN2      -0.591400
     11 C11          1.3700    -0.6660    -1.5820 c3         1 PN2      -0.077000
     12 C12          1.8010     0.8500    -1.6190 c3         1 PN2       0.237600
     13 C13         -0.1820    -0.8130    -1.6360 c3         1 PN2      -0.076100
     14 C14          1.9860    -1.4520    -2.7790 c3         1 PN2      -0.076100
     15 C10          1.8630    -1.3220    -0.2340 c3         1 PN2       0.101300
     16 O10          3.3120    -1.3400    -0.1640 oh         1 PN2      -0.661000
     17 C9           1.2530    -0.6560     1.0470 c          1 PN2       0.568100
     18 O39          1.7160     0.3670     1.5360 o          1 PN2      -0.622100
     19 N8           0.2050    -1.3350     1.6360 ns         1 PN2      -0.491900
     20 C7          -0.4760    -0.9130     2.8640 c3         1 PN2       0.114000
     21 C42          0.3190    -1.3130     4.1210 c3         1 PN2      -0.187400
     22 C43         -0.4180    -0.8730     5.3830 c          1 PN2       0.601100
     23 O44         -1.4230    -1.4380     5.7860 o          1 PN2      -0.590100
     24 N4           0.1500     0.1860     6.0520 ns         1 PN2      -0.516900
     25 C3          -0.3630     0.7570     7.3040 c3         1 PN2       0.114000
     26 C47         -0.0970    -0.1490     8.5240 c3         1 PN2       0.056600
     27 S1          -0.6810     0.5770    10.1280 sh         1 PN2      -0.458800
     28 HN1         -2.5020     0.6370    -7.7240 hn         1 PN2       0.396000
     29 HN2         -2.4370    -1.0800    -7.7330 hn         1 PN2       0.396000
     30 HCB1        -1.7540     1.7520    -5.2600 h1         1 PN2       0.035700
     31 HCB2        -0.3600     1.7460    -6.3720 h1         1 PN2       0.035700
     32 H121         1.1670     1.4270    -0.9340 h1         1 PN2       0.031200
     33 H122         2.8230     0.9340    -1.2300 h1         1 PN2       0.031200
     34 H131        -0.6720    -0.1550    -0.9090 hc         1 PN2       0.036700
     35 H132        -0.5850    -0.5770    -2.6230 hc         1 PN2       0.036700
     36 H133        -0.4830    -1.8440    -1.4150 hc         1 PN2       0.036700
     37 H141         3.0740    -1.3170    -2.8260 hc         1 PN2       0.036700
     38 H142         1.7810    -2.5260    -2.6880 hc         1 PN2       0.036700
     39 H143         1.5710    -1.1180    -3.7370 hc         1 PN2       0.036700
     40 H10          1.5110    -2.3630    -0.2330 h1         1 PN2       0.050700
     41 H10O         3.5780    -0.5760     0.3990 ho         1 PN2       0.470000
     42 HN8         -0.1030    -2.1890     1.1850 hn         1 PN2       0.317500
     43 H71         -0.6160     0.1770     2.8430 h1         1 PN2       0.079700
     44 H72         -1.4710    -1.3780     2.8930 h1         1 PN2       0.079700
     45 H421         0.4210    -2.4050     4.1330 hc         1 PN2       0.060200
     46 H422         1.3090    -0.8450     4.0780 hc         1 PN2       0.060200
     47 HN4          0.9860     0.5890     5.6440 hn         1 PN2       0.310500
     48 H31          0.1170     1.7310     7.4680 h1         1 PN2       0.067700
     49 H2          -1.4440     0.9270     7.2060 h1         1 PN2       0.067700
     50 H471        -0.5990    -1.1140     8.3790 h1         1 PN2       0.066200
     51 H472         0.9810    -0.3370     8.6040 h1         1 PN2       0.066200
     52 HS          -0.2860    -0.4570    10.9130 hs         1 PN2       0.212800
@<TRIPOS>BOND
     1     1     2 1   
     2     1     3 2   
     3     1     5 1   
     4     2    28 1   
     5     2    29 1   
     6     3     4 2   
     7     5     6 1   
     8     5    30 1   
     9     5    31 1   
    10     6     7 1   
    11     7     8 1   
    12     7     9 1   
    13     7    10 1   
    14    10    12 1   
    15    11    12 1   
    16    11    13 1   
    17    11    14 1   
    18    11    15 1   
    19    12    32 1   
    20    12    33 1   
    21    13    34 1   
    22    13    35 1   
    23    13    36 1   
    24    14    37 1   
    25    14    38 1   
    26    14    39 1   
    27    15    16 1   
    28    15    17 1   
    29    15    40 1   
    30    16    41 1   
    31    17    18 2   
    32    17    19 1   
    33    19    20 1   
    34    19    42 1   
    35    20    21 1   
    36    20    43 1   
    37    20    44 1   
    38    21    22 1   
    39    21    45 1   
    40    21    46 1   
    41    22    23 2   
    42    22    24 1   
    43    24    25 1   
    44    24    47 1   
    45    25    26 1   
    46    25    48 1   
    47    25    49 1   
    48    26    27 1   
    49    26    50 1   
    50    26    51 1   
    51    27    52 1   
@<TRIPOS>SUBSTRUCTURE
     1 PN2         1 TEMP              0 ****  ****    0 ROOT
