@<TRIPOS>MOLECULE
PN2
   52    51     1     0     0
SMALL
abcg2


@<TRIPOS>ATOM
      1 CA          -2.3900     0.1230    -5.6050 c2         1 PN2      -0.264300
      2 N           -3.5710     0.2060    -6.3980 nv         1 PN2      -0.879000
      3 C           -2.2460    -0.8230    -4.7020 c1         1 PN2       0.568600
      4 O           -2.1770    -1.7020    -3.9420 o          1 PN2      -0.385500
      5 CB          -1.2980     1.1290    -5.8330 c3         1 PN2       0.317800
      6 O5          -0.1510     0.8090    -5.0780 os         1 PN2      -0.593400
      7 P6           0.0450     1.5690    -3.6270 p5         1 PN2       1.388800
      8 O7          -1.0340     1.1570    -2.6740 o          1 PN2      -0.826500
      9 O8           0.3040     3.0270    -3.8630 o          1 PN2      -0.826500
     10 O9           1.4470     0.7930    -3.3070 os         1 PN2      -0.591400
     11 C11          2.1760    -0.7670    -1.6070 c3         1 PN2      -0.077000
     12 C12          1.9100     0.6950    -1.9720 c3         1 PN2       0.237600
     13 C13          0.8690    -1.5620    -1.6120 c3         1 PN2      -0.076100
     14 C14          3.1300    -1.4080    -2.6210 c3         1 PN2      -0.076100
     15 C10          2.8550    -0.8470    -0.2110 c3         1 PN2       0.101300
     16 O10          4.1590    -0.3350    -0.2260 oh         1 PN2      -0.661000
     17 C9           2.0810    -0.1160     0.8910 c          1 PN2       0.568100
     18 O39          2.4440     1.0020     1.2410 o          1 PN2      -0.622100
     19 N8           1.0330    -0.7500     1.4210 ns         1 PN2      -0.491900
     20 C7           0.1980    -0.1930     2.4630 c3         1 PN2       0.114000
     21 C42          0.7090    -0.5630     3.8490 c3         1 PN2      -0.187400
     22 C43         -0.1520    -0.0020     4.9610 c          1 PN2       0.601100
     23 O44         -1.1900     0.6070     4.7470 o          1 PN2      -0.590100
     24 N4           0.3200    -0.2250     6.2010 ns         1 PN2      -0.516900
     25 C3          -0.3810     0.1710     7.3980 c3         1 PN2       0.114000
     26 C47         -1.4420    -0.8470     7.8010 c3         1 PN2       0.056600
     27 S1          -2.2290    -0.2800     9.3460 sh         1 PN2      -0.458800
     28 HN1         -3.7340    -0.6230    -6.9520 hn         1 PN2       0.396000
     29 HN2         -4.4000     0.3910    -5.8510 hn         1 PN2       0.396000
     30 HCB1        -1.6670     2.1420    -5.6200 h1         1 PN2       0.035700
     31 HCB2        -1.0240     1.1190    -6.8930 h1         1 PN2       0.035700
     32 H121         1.1820     1.1230    -1.2750 h1         1 PN2       0.031200
     33 H122         2.8300     1.2810    -1.8830 h1         1 PN2       0.031200
     34 H131         0.0900    -1.1010    -1.0070 hc         1 PN2       0.036700
     35 H132         0.4750    -1.6350    -2.6240 hc         1 PN2       0.036700
     36 H133         1.0340    -2.5810    -1.2530 hc         1 PN2       0.036700
     37 H141         4.0500    -0.8370    -2.7410 hc         1 PN2       0.036700
     38 H142         3.4000    -2.4190    -2.3050 hc         1 PN2       0.036700
     39 H143         2.6530    -1.4870    -3.5970 hc         1 PN2       0.036700
     40 H10          2.9130    -1.9130     0.0480 h1         1 PN2       0.050700
     41 H10O         4.1140     0.5550     0.1510 ho         1 PN2       0.470000
     42 HN8          0.8420    -1.6940     1.1270 hn         1 PN2       0.317500
     43 H71          0.1590     0.8880     2.3410 h1         1 PN2       0.079700
     44 H72         -0.8130    -0.5700     2.3130 h1         1 PN2       0.079700
     45 H421         0.7460    -1.6520     3.9530 hc         1 PN2       0.060200
     46 H422         1.7370    -0.2120     3.9750 hc         1 PN2       0.060200
     47 HN4          1.1540    -0.7790     6.3110 hn         1 PN2       0.310500
     48 H31          0.3560     0.2780     8.1950 h1         1 PN2       0.067700
     49 H2          -0.8370     1.1500     7.2440 h1         1 PN2       0.067700
     50 H471        -2.1960    -0.9360     7.0190 h1         1 PN2       0.066200
     51 H472        -0.9850    -1.8230     7.9600 h1         1 PN2       0.066200
     52 HS          -3.0780    -1.3030     9.4900 hs         1 PN2       0.212800
@<TRIPOS>BOND
     1     1     2 1   
     2     1     3 2   
     3     1     5 1   
     4     2    28 1   
     5     2    29 1   
     6     3     4 2   
     7     5     6 1   
     8     5    30 1   
     9     5    31 1   
    10     6     7 1   
    11     7     8 1   
    12     7     9 1   
    13     7    10 1   
    14    10    12 1   
    15    11    12 1   
    16    11    13 1   
    17    11    14 1   
    18    11    15 1   
    19    12    32 1   
    20    12    33 1   
    21    13    34 1   
    22    13    35 1   
    23    13    36 1   
    24    14    37 1   
    25    14    38 1   
    26    14    39 1   
    27    15    16 1   
    28    15    17 1   
    29    15    40 1   
    30    16    41 1   
    31    17    18 2   
    32    17    19 1   
    33    19    20 1   
    34    19    42 1   
    35    20    21 1   
    36    20    43 1   
    37    20    44 1   
    38    21    22 1   
    39    21    45 1   
    40    21    46 1   
    41    22    23 2   
    42    22    24 1   
    43    24    25 1   
    44    24    47 1   
    45    25    26 1   
    46    25    48 1   
    47    25    49 1   
    48    26    27 1   
    49    26    50 1   
    50    26    51 1   
    51    27    52 1   
@<TRIPOS>SUBSTRUCTURE
     1 PN2         1 TEMP              0 ****  ****    0 ROOT
