@<TRIPOS>MOLECULE
PN3
   43    43     1     0     0
SMALL
abcg2


@<TRIPOS>ATOM
      1 C1           1.0330     5.5990    38.2920 c          1 PN3       0.583900
      2 O2           1.3100     5.8910    39.4590 o          1 PN3      -0.609100
      3 N3           1.8650     5.8470    37.2750 n          1 PN3      -0.271300
      4 O4           3.1250     6.3490    37.6170 oh         1 PN3      -0.455100
      5 C5           1.8090     5.2620    35.9580 c3         1 PN3       0.116000
      6 C6           2.6120     3.9600    35.8600 c3         1 PN3       0.087700
      7 C7           2.6310     3.4430    34.4090 c3         1 PN3      -0.049100
      8 C8           3.4610     2.1950    34.2740 ca         1 PN3      -0.087300
      9 C9           4.8450     2.2780    34.1060 ca         1 PN3      -0.098500
     10 C10          5.6270     1.1300    34.0600 ca         1 PN3      -0.106500
     11 C11          5.0350    -0.1250    34.1810 ca         1 PN3      -0.106000
     12 C12          3.6560    -0.2200    34.3410 ca         1 PN3      -0.106500
     13 C13          2.8780     0.9320    34.3850 ca         1 PN3      -0.098500
     14 N14          2.0710     2.9770    36.7750 ns         1 PN3      -0.505900
     15 C15          2.8500     2.2260    37.5960 c          1 PN3       0.649100
     16 O16          4.0340     2.4300    37.8060 o          1 PN3      -0.533000
     17 O17          2.1100     1.2480    38.1480 os         1 PN3      -0.490100
     18 C18          2.6900     0.2490    39.0660 c3         1 PN3       0.220000
     19 C19          3.2290     0.9310    40.3180 c3         1 PN3      -0.108100
     20 C20          1.4870    -0.6220    39.4090 c3         1 PN3      -0.108100
     21 C21          3.7520    -0.5670    38.3370 c3         1 PN3      -0.108100
     22 H1           0.0890     5.1430    37.9770 h5         1 PN3       0.033200
     23 HO4          3.0790     6.3880    38.5940 ho         1 PN3       0.476000
     24 H5           0.7560     5.0790    35.7400 h1         1 PN3       0.066200
     25 H5A          2.1830     5.9910    35.2380 h1         1 PN3       0.066200
     26 H6           3.6340     4.1540    36.1810 h1         1 PN3       0.109700
     27 H7           1.6040     3.2500    34.0900 hc         1 PN3       0.052200
     28 H7A          3.0310     4.2340    33.7710 hc         1 PN3       0.052200
     29 H9           5.3120     3.2520    34.0190 ha         1 PN3       0.109500
     30 H10          6.6990     1.2130    33.9310 ha         1 PN3       0.113000
     31 H11          5.6430    -1.0200    34.1490 ha         1 PN3       0.113000
     32 H12          3.1860    -1.1910    34.4360 ha         1 PN3       0.113000
     33 H13          1.8050     0.8520    34.5150 ha         1 PN3       0.109500
     34 HN14         1.1380     2.6320    36.5990 hn         1 PN3       0.311500
     35 H19          3.4990     0.1680    41.0490 hc         1 PN3       0.051144
     36 H19A         4.1090     1.5310    40.0980 hc         1 PN3       0.051144
     37 H19B         2.4630     1.5710    40.7590 hc         1 PN3       0.051144
     38 H20          1.7920    -1.4160    40.0910 hc         1 PN3       0.051144
     39 H20A         0.7110    -0.0270    39.8930 hc         1 PN3       0.051144
     40 H20B         1.0730    -1.0750    38.5080 hc         1 PN3       0.051144
     41 H21          4.0800    -1.3830    38.9830 hc         1 PN3       0.051144
     42 H21A         3.3380    -0.9960    37.4240 hc         1 PN3       0.051144
     43 H21B         4.6150     0.0420    38.0800 hc         1 PN3       0.051144
@<TRIPOS>BOND
     1     1     2 2   
     2     1     3 1   
     3     1    22 1   
     4     3     4 1   
     5     3     5 1   
     6     4    23 1   
     7     5     6 1   
     8     5    24 1   
     9     5    25 1   
    10     6     7 1   
    11     6    14 1   
    12     6    26 1   
    13     7     8 1   
    14     7    27 1   
    15     7    28 1   
    16     8     9 ar  
    17     8    13 ar  
    18     9    10 ar  
    19     9    29 1   
    20    10    11 ar  
    21    10    30 1   
    22    11    12 ar  
    23    11    31 1   
    24    12    13 ar  
    25    12    32 1   
    26    13    33 1   
    27    14    15 1   
    28    14    34 1   
    29    15    16 2   
    30    15    17 1   
    31    17    18 1   
    32    18    19 1   
    33    18    20 1   
    34    18    21 1   
    35    19    35 1   
    36    19    36 1   
    37    19    37 1   
    38    20    38 1   
    39    20    39 1   
    40    20    40 1   
    41    21    41 1   
    42    21    42 1   
    43    21    43 1   
@<TRIPOS>SUBSTRUCTURE
     1 PN3         1 TEMP              0 ****  ****    0 ROOT
