@<TRIPOS>MOLECULE
PN3
   43    43     1     0     0
SMALL
No Charge or Current Charge


@<TRIPOS>ATOM
      1 C1           0.7940     5.7170    38.3030 c          1 PN3       0.583900
      2 O2           0.8200     6.2370    39.4160 o          1 PN3      -0.609100
      3 N3           1.8170     5.9080    37.3410 n          1 PN3      -0.271300
      4 O4           2.9390     6.7820    37.6130 oh         1 PN3      -0.455100
      5 C5           1.7690     5.2970    35.9940 c3         1 PN3       0.116000
      6 C6           2.6040     4.0000    35.8750 c3         1 PN3       0.087700
      7 C7           2.6500     3.4500    34.4290 c3         1 PN3      -0.049100
      8 C8           3.4690     2.1660    34.3170 ca         1 PN3      -0.087300
      9 C9           4.8760     2.2230    34.2990 ca         1 PN3      -0.098500
     10 C10          5.6330     1.0410    34.2280 ca         1 PN3      -0.106500
     11 C11          4.9880    -0.2060    34.1740 ca         1 PN3      -0.106000
     12 C12          3.5840    -0.2690    34.1910 ca         1 PN3      -0.106500
     13 C13          2.8270     0.9130    34.2610 ca         1 PN3      -0.098500
     14 N14          2.1250     2.9630    36.8020 ns         1 PN3      -0.505900
     15 C15          2.9220     2.2520    37.6520 c          1 PN3       0.649100
     16 O16          4.1070     2.4710    37.8430 o          1 PN3      -0.533000
     17 O17          2.1610     1.2610    38.2080 os         1 PN3      -0.490100
     18 C18          2.7230     0.2420    39.0670 c3         1 PN3       0.220000
     19 C19          3.2960     0.8950    40.3510 c3         1 PN3      -0.108100
     20 C20          1.5210    -0.6590    39.4250 c3         1 PN3      -0.108100
     21 C21          3.7780    -0.5740    38.2750 c3         1 PN3      -0.108100
     22 H1          -0.0170     5.0530    37.9470 h5         1 PN3       0.033200
     23 HO4          3.5850     6.2290    38.1110 ho         1 PN3       0.476000
     24 H5           0.7250     5.0830    35.7310 h1         1 PN3       0.066200
     25 H5A          2.1440     6.0310    35.2680 h1         1 PN3       0.066200
     26 H6           3.6350     4.2600    36.1510 h1         1 PN3       0.109700
     27 H7           1.6250     3.2760    34.0780 hc         1 PN3       0.052200
     28 H7A          3.0710     4.2170    33.7670 hc         1 PN3       0.052200
     29 H9           5.3840     3.1840    34.3480 ha         1 PN3       0.109500
     30 H10          6.7200     1.0910    34.2170 ha         1 PN3       0.113000
     31 H11          5.5740    -1.1210    34.1220 ha         1 PN3       0.113000
     32 H12          3.0830    -1.2340    34.1520 ha         1 PN3       0.113000
     33 H13          1.7410     0.8530    34.2830 ha         1 PN3       0.109500
     34 HN14         1.1690     2.6400    36.7300 hn         1 PN3       0.311500
     35 H19          3.5080     0.1290    41.1060 hc         1 PN3       0.051144
     36 H19A         4.2340     1.4260    40.1580 hc         1 PN3       0.051144
     37 H19B         2.5780     1.6040    40.7810 hc         1 PN3       0.051144
     38 H20          1.8320    -1.4830    40.0790 hc         1 PN3       0.051144
     39 H20A         0.7460    -0.0860    39.9470 hc         1 PN3       0.051144
     40 H20B         1.0750    -1.0930    38.5210 hc         1 PN3       0.051144
     41 H21          4.0540    -1.4800    38.8270 hc         1 PN3       0.051144
     42 H21A         3.3810    -0.8800    37.2990 hc         1 PN3       0.051144
     43 H21B         4.6980    -0.0040    38.1080 hc         1 PN3       0.051144
@<TRIPOS>BOND
     1     1     2 2   
     2     1     3 1   
     3     1    22 1   
     4     3     4 1   
     5     3     5 1   
     6     4    23 1   
     7     5     6 1   
     8     5    24 1   
     9     5    25 1   
    10     6     7 1   
    11     6    14 1   
    12     6    26 1   
    13     7     8 1   
    14     7    27 1   
    15     7    28 1   
    16     8     9 ar  
    17     8    13 ar  
    18     9    10 ar  
    19     9    29 1   
    20    10    11 ar  
    21    10    30 1   
    22    11    12 ar  
    23    11    31 1   
    24    12    13 ar  
    25    12    32 1   
    26    13    33 1   
    27    14    15 1   
    28    14    34 1   
    29    15    16 2   
    30    15    17 1   
    31    17    18 1   
    32    18    19 1   
    33    18    20 1   
    34    18    21 1   
    35    19    35 1   
    36    19    36 1   
    37    19    37 1   
    38    20    38 1   
    39    20    39 1   
    40    20    40 1   
    41    21    41 1   
    42    21    42 1   
    43    21    43 1   
@<TRIPOS>SUBSTRUCTURE
     1 PN3         1 TEMP              0 ****  ****    0 ROOT
