@<TRIPOS>MOLECULE
PN4
   48    47     1     0     0
SMALL
No Charge or Current Charge


@<TRIPOS>ATOM
      1 CAU          2.6980    -1.0650     0.0240 c          1 PN4       0.563100
      2 OAE          2.7280    -1.4490     1.1870 o          1 PN4      -0.613100
      3 CAV          3.9830    -0.5940    -0.7360 c3         1 PN4       0.100300
      4 OAG          5.1120    -1.4470    -0.4120 oh         1 PN4      -0.647000
      5 CAW          4.3430     0.9210    -0.4940 c3         1 PN4      -0.064000
      6 CAC          5.5500     1.3080    -1.4020 c3         1 PN4      -0.081600
      7 CAB          3.1280     1.8100    -0.9010 c3         1 PN4      -0.081600
      8 CAP          4.6980     1.1710     1.0110 c3         1 PN4       0.165600
      9 OAS          5.0410     2.5430     1.2570 oh         1 PN4      -0.665000
     10 NAR          1.5370    -1.1010    -0.7240 ns         1 PN4      -0.499900
     11 CAN          0.2220    -1.4810    -0.2020 c3         1 PN4       0.117000
     12 CAO         -0.4260    -0.3300     0.5900 c3         1 PN4      -0.182400
     13 CAT         -1.8090    -0.7380     1.0900 c          1 PN4       0.601100
     14 OAD         -1.9700    -1.5210     2.0150 o          1 PN4      -0.595100
     15 CAA         -9.1370     0.6960    -0.5090 c3         1 PN4      -0.089100
     16 CAJ         -7.6460     0.9240    -0.8240 c3         1 PN4      -0.074400
     17 CAK         -6.7030     0.1620     0.1330 c3         1 PN4      -0.074400
     18 CAL         -5.2090     0.3910    -0.1830 c3         1 PN4      -0.095400
     19 CAM         -4.2710    -0.3700     0.7730 c3         1 PN4       0.105000
     20 NAQ         -2.8650    -0.1340     0.4480 ns         1 PN4      -0.509900
     21 HAV          3.7590    -0.7060    -1.8050 h1         1 PN4       0.068700
     22 HOAG         4.9540    -1.7900     0.4970 ho         1 PN4       0.469000
     23 HAC          5.3410     1.0710    -2.4530 hc         1 PN4       0.040033
     24 HACA         5.7670     2.3820    -1.3430 hc         1 PN4       0.040033
     25 HACB         6.4590     0.7700    -1.1080 hc         1 PN4       0.040033
     26 HAB          2.2740     1.6530    -0.2310 hc         1 PN4       0.040033
     27 HABA         3.3840     2.8750    -0.8610 hc         1 PN4       0.040033
     28 HABB         2.8050     1.5870    -1.9250 hc         1 PN4       0.040033
     29 HAP          3.8420     0.8920     1.6390 h1         1 PN4       0.029200
     30 HAPA         5.5390     0.5250     1.3000 h1         1 PN4       0.029200
     31 HOAS         5.2610     2.6170     2.2130 ho         1 PN4       0.444000
     32 HNAR         1.6020    -0.8040    -1.6910 hn         1 PN4       0.313500
     33 HAN         -0.4240    -1.7570    -1.0460 h1         1 PN4       0.072200
     34 HANA         0.3290    -2.3640     0.4430 h1         1 PN4       0.072200
     35 HAO          0.2080    -0.0980     1.4540 hc         1 PN4       0.059200
     36 HAOA        -0.5010     0.5460    -0.0640 hc         1 PN4       0.059200
     37 HAA         -9.7660     1.2550    -1.2120 hc         1 PN4       0.033700
     38 HAAA        -9.3930    -0.3670    -0.5910 hc         1 PN4       0.033700
     39 HAAB        -9.3760     1.0330     0.5070 hc         1 PN4       0.033700
     40 HAJ         -7.4480     0.6110    -1.8560 hc         1 PN4       0.037200
     41 HAJA        -7.4310     1.9990    -0.7680 hc         1 PN4       0.037200
     42 HAK         -6.9050     0.4770     1.1650 hc         1 PN4       0.043200
     43 HAKA        -6.9230    -0.9110     0.0760 hc         1 PN4       0.043200
     44 HAL         -5.0050     0.0750    -1.2140 hc         1 PN4       0.041700
     45 HALA        -4.9870     1.4640    -0.1240 hc         1 PN4       0.041700
     46 HAM         -4.4550    -0.0460     1.8060 h1         1 PN4       0.053200
     47 HAMA        -4.4750    -1.4470     0.7070 h1         1 PN4       0.053200
     48 HNAQ        -2.6400     0.5120    -0.2990 hn         1 PN4       0.310500
@<TRIPOS>BOND
     1     1     2 2   
     2     1     3 1   
     3     1    10 1   
     4     3     4 1   
     5     3     5 1   
     6     3    21 1   
     7     4    22 1   
     8     5     6 1   
     9     5     7 1   
    10     5     8 1   
    11     6    23 1   
    12     6    24 1   
    13     6    25 1   
    14     7    26 1   
    15     7    27 1   
    16     7    28 1   
    17     8     9 1   
    18     8    29 1   
    19     8    30 1   
    20     9    31 1   
    21    10    11 1   
    22    10    32 1   
    23    11    12 1   
    24    11    33 1   
    25    11    34 1   
    26    12    13 1   
    27    12    35 1   
    28    12    36 1   
    29    13    14 2   
    30    13    20 1   
    31    15    16 1   
    32    15    37 1   
    33    15    38 1   
    34    15    39 1   
    35    16    17 1   
    36    16    40 1   
    37    16    41 1   
    38    17    18 1   
    39    17    42 1   
    40    17    43 1   
    41    18    19 1   
    42    18    44 1   
    43    18    45 1   
    44    19    20 1   
    45    19    46 1   
    46    19    47 1   
    47    20    48 1   
@<TRIPOS>SUBSTRUCTURE
     1 PN4         1 TEMP              0 ****  ****    0 ROOT
