@<TRIPOS>MOLECULE
PN4
   48    47     1     0     0
SMALL
bcc


@<TRIPOS>ATOM
      1 CAU          2.8540    -0.9550     0.0940 c          1 PN4       0.630100
      2 OAE          3.0690    -1.6860     1.0550 o          1 PN4      -0.613100
      3 CAV          4.0100    -0.5020    -0.8010 c3         1 PN4       0.077100
      4 OAG          4.9600    -1.5320    -0.8400 oh         1 PN4      -0.584800
      5 CAW          4.6230     0.8640    -0.3850 c3         1 PN4      -0.064000
      6 CAC          5.7400     1.1890    -1.3820 c3         1 PN4      -0.081600
      7 CAB          3.5570     1.9600    -0.4640 c3         1 PN4      -0.081600
      8 CAP          5.1830     0.7800     1.0370 c3         1 PN4       0.142400
      9 OAS          5.8080     2.0020     1.3640 oh         1 PN4      -0.602800
     10 NAR          1.6350    -0.5290    -0.2410 ns         1 PN4      -0.566900
     11 CAN          0.4420    -0.8940     0.4980 c3         1 PN4       0.117000
     12 CAO         -0.7570    -0.1800    -0.1000 c3         1 PN4      -0.182400
     13 CAT         -2.0600    -0.5860     0.5600 c          1 PN4       0.668100
     14 OAD         -2.1040    -1.3350     1.5270 o          1 PN4      -0.595100
     15 CAA         -9.4330     0.4290    -0.2950 c3         1 PN4      -0.089100
     16 CAJ         -8.0170     0.8070    -0.7080 c3         1 PN4      -0.074400
     17 CAK         -6.9550     0.0430     0.0730 c3         1 PN4      -0.074400
     18 CAL         -5.5350     0.4000    -0.3450 c3         1 PN4      -0.095400
     19 CAM         -4.4990    -0.3710     0.4570 c3         1 PN4       0.105000
     20 NAQ         -3.1590    -0.0600     0.0020 ns         1 PN4      -0.576900
     21 HAV          3.6320    -0.3740    -1.8230 h1         1 PN4       0.068700
     22 HOAG         4.9490    -1.9720     0.0200 ho         1 PN4       0.430000
     23 HAC          5.3480     1.2200    -2.4010 hc         1 PN4       0.040033
     24 HACA         6.1770     2.1650    -1.1720 hc         1 PN4       0.040033
     25 HACB         6.5410     0.4500    -1.3550 hc         1 PN4       0.040033
     26 HAB          2.7990     1.8570     0.3140 hc         1 PN4       0.040033
     27 HABA         4.0100     2.9440    -0.3520 hc         1 PN4       0.040033
     28 HABB         3.0490     1.9510    -1.4320 hc         1 PN4       0.040033
     29 HAP          4.3690     0.5640     1.7410 h1         1 PN4       0.029200
     30 HAPA         5.8990    -0.0490     1.1060 h1         1 PN4       0.029200
     31 HOAS         6.1980     1.9090     2.2370 ho         1 PN4       0.405000
     32 HNAR         1.5310     0.0200    -1.0790 hn         1 PN4       0.313500
     33 HAN          0.2980    -1.9760     0.4570 h1         1 PN4       0.072200
     34 HANA         0.5630    -0.6240     1.5480 h1         1 PN4       0.072200
     35 HAO         -0.6360     0.9040    -0.0120 hc         1 PN4       0.059200
     36 HAOA        -0.8250    -0.3940    -1.1710 hc         1 PN4       0.059200
     37 HAA        -10.1790     0.9840    -0.8640 hc         1 PN4       0.033700
     38 HAAA        -9.6180    -0.6350    -0.4560 hc         1 PN4       0.033700
     39 HAAB        -9.6030     0.6360     0.7630 hc         1 PN4       0.033700
     40 HAJ         -7.8850     0.6200    -1.7780 hc         1 PN4       0.037200
     41 HAJA        -7.8680     1.8820    -0.5670 hc         1 PN4       0.037200
     42 HAK         -7.0810     0.2400     1.1430 hc         1 PN4       0.043200
     43 HAKA        -7.1110    -1.0330    -0.0590 hc         1 PN4       0.043200
     44 HAL         -5.4070     0.1850    -1.4110 hc         1 PN4       0.041700
     45 HALA        -5.3720     1.4750    -0.2180 hc         1 PN4       0.041700
     46 HAM         -4.5970    -0.1270     1.5180 h1         1 PN4       0.053200
     47 HAMA        -4.6840    -1.4450     0.3610 h1         1 PN4       0.053200
     48 HNAQ        -3.0570     0.5280    -0.8090 hn         1 PN4       0.310500
@<TRIPOS>BOND
     1     1     2 2   
     2     1     3 1   
     3     1    10 1   
     4     3     4 1   
     5     3     5 1   
     6     3    21 1   
     7     4    22 1   
     8     5     6 1   
     9     5     7 1   
    10     5     8 1   
    11     6    23 1   
    12     6    24 1   
    13     6    25 1   
    14     7    26 1   
    15     7    27 1   
    16     7    28 1   
    17     8     9 1   
    18     8    29 1   
    19     8    30 1   
    20     9    31 1   
    21    10    11 1   
    22    10    32 1   
    23    11    12 1   
    24    11    33 1   
    25    11    34 1   
    26    12    13 1   
    27    12    35 1   
    28    12    36 1   
    29    13    14 2   
    30    13    20 1   
    31    15    16 1   
    32    15    37 1   
    33    15    38 1   
    34    15    39 1   
    35    16    17 1   
    36    16    40 1   
    37    16    41 1   
    38    17    18 1   
    39    17    42 1   
    40    17    43 1   
    41    18    19 1   
    42    18    44 1   
    43    18    45 1   
    44    19    20 1   
    45    19    46 1   
    46    19    47 1   
    47    20    48 1   
@<TRIPOS>SUBSTRUCTURE
     1 PN4         1 TEMP              0 ****  ****    0 ROOT
