@<TRIPOS>MOLECULE
PN5
   54    53     1     0     0
SMALL
No Charge or Current Charge


@<TRIPOS>ATOM
      1 CP2          6.8580    -1.6010    -0.6750 c3         1 PN5       0.053600
      2 CP3          6.3490    -0.1730    -0.9630 c3         1 PN5       0.114000
      3 NP4          4.9180    -0.0130    -0.6780 ns         1 PN5      -0.510900
      4 CP5          4.3730     0.0540     0.5840 c          1 PN5       0.603100
      5 OP5          5.0540    -0.0160     1.5950 o          1 PN5      -0.598100
      6 CP6          2.8540     0.1900     0.6280 c3         1 PN5      -0.185400
      7 CP7          2.4520     1.6110     1.0640 c3         1 PN5       0.116000
      8 NP8          0.9970     1.7690     1.1080 ns         1 PN5      -0.503900
      9 CP9          0.1880     1.9550     0.0040 c          1 PN5       0.578100
     10 OP9          0.6640     2.0970    -1.1160 o          1 PN5      -0.603100
     11 CPA         -1.3530     2.0520     0.2910 c3         1 PN5       0.088300
     12 OPA         -1.6370     2.5620     1.6250 oh         1 PN5      -0.658000
     13 CPB         -2.1480     0.7160     0.0320 c3         1 PN5      -0.068000
     14 CPE         -1.8750     0.2060    -1.4170 c3         1 PN5      -0.087600
     15 CPD         -1.7130    -0.3980     1.0340 c3         1 PN5      -0.087600
     16 CPC         -3.6770     1.0080     0.1810 c3         1 PN5       0.165600
     17 OA6         -4.4190    -0.2020    -0.0640 os         1 PN5      -0.449100
     18 CT1         -5.7870    -0.1530     0.0090 c          1 PN5       0.595100
     19 OT1         -6.4170     0.8650     0.2720 o          1 PN5      -0.484000
     20 CT2         -6.4370    -1.5400    -0.2810 c3         1 PN5      -0.097000
     21 CT5         -5.9280    -2.5740     0.7620 c3         1 PN5      -0.082100
     22 CT3         -7.9860    -1.4460    -0.1890 c3         1 PN5      -0.082100
     23 CT4         -6.0400    -2.0050    -1.7100 c3         1 PN5      -0.082100
     24 SP1          8.6490    -1.8480    -1.0890 sh         1 PN5      -0.449800
     25 HP21         6.7150    -1.8320     0.3890 h1         1 PN5       0.066200
     26 HP22         6.2670    -2.3180    -1.2590 h1         1 PN5       0.066200
     27 HP31         6.9190     0.5460    -0.3590 h1         1 PN5       0.069700
     28 HP32         6.5240     0.0640    -2.0210 h1         1 PN5       0.069700
     29 HP1          8.7120    -3.1510    -0.7160 hs         1 PN5       0.216800
     30 HP4          4.2730     0.0510    -1.4570 hn         1 PN5       0.312500
     31 HP61         2.4270    -0.0110    -0.3610 hc         1 PN5       0.062700
     32 HP62         2.4550    -0.5220     1.3590 hc         1 PN5       0.062700
     33 HP71         2.8600     1.8210     2.0620 h1         1 PN5       0.072200
     34 HP72         2.8740     2.3490     0.3670 h1         1 PN5       0.072200
     35 HP8          0.5320     1.7440     2.0080 hn         1 PN5       0.321500
     36 HPA         -1.7090     2.7870    -0.4440 h1         1 PN5       0.100700
     37 HA          -1.7810     1.7950     2.2200 ho         1 PN5       0.447000
     38 HPD1        -0.6340    -0.5870     0.9760 hc         1 PN5       0.044700
     39 HPD2        -1.9590    -0.1320     2.0690 hc         1 PN5       0.044700
     40 HPD3        -2.2190    -1.3460     0.8120 hc         1 PN5       0.044700
     41 HPE1        -2.4730    -0.6830    -1.6490 hc         1 PN5       0.044700
     42 HPE2        -2.1190     0.9770    -2.1570 hc         1 PN5       0.044700
     43 HPE3        -0.8240    -0.0770    -1.5520 hc         1 PN5       0.044700
     44 HPC1        -3.8930     1.3800     1.1910 h1         1 PN5       0.054700
     45 HPC2        -3.9710     1.7880    -0.5340 h1         1 PN5       0.054700
     46 HT31        -8.3800    -0.7270    -0.9180 hc         1 PN5       0.043700
     47 HT32        -8.4520    -2.4190    -0.3920 hc         1 PN5       0.043700
     48 HT33        -8.3020    -1.1250     0.8110 hc         1 PN5       0.043700
     49 HT41        -4.9540    -2.1300    -1.8010 hc         1 PN5       0.043700
     50 HT42        -6.5090    -2.9660    -1.9540 hc         1 PN5       0.043700
     51 HT43        -6.3590    -1.2720    -2.4600 hc         1 PN5       0.043700
     52 HT51        -6.1680    -2.2490     1.7810 hc         1 PN5       0.043700
     53 HT52        -6.3930    -3.5550     0.6000 hc         1 PN5       0.043700
     54 HT53        -4.8410    -2.7050     0.6960 hc         1 PN5       0.043700
@<TRIPOS>BOND
     1     1     2 1   
     2     1    24 1   
     3     1    25 1   
     4     1    26 1   
     5     2     3 1   
     6     2    27 1   
     7     2    28 1   
     8     3     4 1   
     9     3    30 1   
    10     4     5 2   
    11     4     6 1   
    12     6     7 1   
    13     6    31 1   
    14     6    32 1   
    15     7     8 1   
    16     7    33 1   
    17     7    34 1   
    18     8     9 1   
    19     8    35 1   
    20     9    10 2   
    21     9    11 1   
    22    11    12 1   
    23    11    13 1   
    24    11    36 1   
    25    12    37 1   
    26    13    14 1   
    27    13    15 1   
    28    13    16 1   
    29    14    41 1   
    30    14    42 1   
    31    14    43 1   
    32    15    38 1   
    33    15    39 1   
    34    15    40 1   
    35    16    17 1   
    36    16    44 1   
    37    16    45 1   
    38    17    18 1   
    39    18    19 2   
    40    18    20 1   
    41    20    21 1   
    42    20    22 1   
    43    20    23 1   
    44    21    52 1   
    45    21    53 1   
    46    21    54 1   
    47    22    46 1   
    48    22    47 1   
    49    22    48 1   
    50    23    49 1   
    51    23    50 1   
    52    23    51 1   
    53    24    29 1   
@<TRIPOS>SUBSTRUCTURE
     1 PN5         1 TEMP              0 ****  ****    0 ROOT
