@<TRIPOS>MOLECULE
PN5
   54    53     1     0     0
SMALL
abcg2


@<TRIPOS>ATOM
      1 CP2          6.8660    -1.5950     0.0430 c3         1 PN5       0.053600
      2 CP3          6.1110    -0.9130    -1.0920 c3         1 PN5       0.114000
      3 NP4          4.7340    -0.6540    -0.7490 ns         1 PN5      -0.510900
      4 CP5          4.3380     0.4050    -0.0190 c          1 PN5       0.603100
      5 OP5          5.1110     1.2730     0.3600 o          1 PN5      -0.598100
      6 CP6          2.8590     0.4330     0.3010 c3         1 PN5      -0.185400
      7 CP7          2.3870     1.8000     0.7810 c3         1 PN5       0.116000
      8 NP8          0.9700     1.8040     1.0660 ns         1 PN5      -0.503900
      9 CP9          0.0440     2.0290     0.1260 c          1 PN5       0.578100
     10 OP9          0.3260     2.2840    -1.0380 o          1 PN5      -0.603100
     11 CPA         -1.4170     1.9690     0.5850 c3         1 PN5       0.088300
     12 OPA         -1.5330     2.1140     1.9820 oh         1 PN5      -0.658000
     13 CPB         -2.1690     0.7190     0.0470 c3         1 PN5      -0.068000
     14 CPE         -2.1290     0.6720    -1.4830 c3         1 PN5      -0.087600
     15 CPD         -1.5670    -0.5720     0.6120 c3         1 PN5      -0.087600
     16 CPC         -3.6250     0.8830     0.5030 c3         1 PN5       0.165600
     17 OA6         -4.3740    -0.2320     0.0270 os         1 PN5      -0.449100
     18 CT1         -5.6750    -0.2740     0.2820 c          1 PN5       0.595100
     19 OT1         -6.2470     0.5840     0.9080 o          1 PN5      -0.484000
     20 CT2         -6.3290    -1.5100    -0.3160 c3         1 PN5      -0.097000
     21 CT5         -5.6600    -2.7690     0.2510 c3         1 PN5      -0.082100
     22 CT3         -7.8140    -1.5200     0.0350 c3         1 PN5      -0.082100
     23 CT4         -6.1590    -1.4750    -1.8420 c3         1 PN5      -0.082100
     24 SP1          8.5620    -1.9460    -0.5270 sh         1 PN5      -0.449800
     25 HP21         6.9040    -0.9440     0.9150 h1         1 PN5       0.066200
     26 HP22         6.3690    -2.5250     0.3200 h1         1 PN5       0.066200
     27 HP31         6.6020     0.0230    -1.3590 h1         1 PN5       0.069700
     28 HP32         6.1160    -1.5470    -1.9790 h1         1 PN5       0.069700
     29 HP1          9.0490    -2.3900     0.6360 hs         1 PN5       0.216800
     30 HP4          4.0500    -1.3510    -0.9970 hn         1 PN5       0.312500
     31 HP61         2.2850     0.1250    -0.5770 hc         1 PN5       0.062700
     32 HP62         2.6640    -0.3170     1.0740 hc         1 PN5       0.062700
     33 HP71         2.9100     2.0860     1.6920 h1         1 PN5       0.072200
     34 HP72         2.6010     2.5620     0.0320 h1         1 PN5       0.072200
     35 HP8          0.6760     1.6580     2.0170 hn         1 PN5       0.321500
     36 HPA         -1.8930     2.8530     0.1430 h1         1 PN5       0.100700
     37 HA          -1.5620     1.2500     2.4060 ho         1 PN5       0.447000
     38 HPD1        -0.5080    -0.6580     0.3640 hc         1 PN5       0.044700
     39 HPD2        -1.6610    -0.6520     1.6980 hc         1 PN5       0.044700
     40 HPD3        -2.0670    -1.4440     0.1920 hc         1 PN5       0.044700
     41 HPE1        -2.7870    -0.1150    -1.8500 hc         1 PN5       0.044700
     42 HPE2        -2.4560     1.6160    -1.9230 hc         1 PN5       0.044700
     43 HPE3        -1.1310     0.4580    -1.8560 hc         1 PN5       0.044700
     44 HPC1        -3.7050     0.9300     1.5910 h1         1 PN5       0.054700
     45 HPC2        -4.0390     1.8120     0.0960 h1         1 PN5       0.054700
     46 HT31        -8.3340    -0.6490    -0.3640 hc         1 PN5       0.043700
     47 HT32        -8.2810    -2.4100    -0.3900 hc         1 PN5       0.043700
     48 HT33        -7.9750    -1.5460     1.1130 hc         1 PN5       0.043700
     49 HT41        -5.1120    -1.5170    -2.1410 hc         1 PN5       0.043700
     50 HT42        -6.6650    -2.3360    -2.2810 hc         1 PN5       0.043700
     51 HT43        -6.6010    -0.5760    -2.2740 hc         1 PN5       0.043700
     52 HT51        -5.7650    -2.8230     1.3360 hc         1 PN5       0.043700
     53 HT52        -6.1410    -3.6520    -0.1730 hc         1 PN5       0.043700
     54 HT53        -4.5990    -2.8200     0.0090 hc         1 PN5       0.043700
@<TRIPOS>BOND
     1     1     2 1   
     2     1    24 1   
     3     1    25 1   
     4     1    26 1   
     5     2     3 1   
     6     2    27 1   
     7     2    28 1   
     8     3     4 1   
     9     3    30 1   
    10     4     5 2   
    11     4     6 1   
    12     6     7 1   
    13     6    31 1   
    14     6    32 1   
    15     7     8 1   
    16     7    33 1   
    17     7    34 1   
    18     8     9 1   
    19     8    35 1   
    20     9    10 2   
    21     9    11 1   
    22    11    12 1   
    23    11    13 1   
    24    11    36 1   
    25    12    37 1   
    26    13    14 1   
    27    13    15 1   
    28    13    16 1   
    29    14    41 1   
    30    14    42 1   
    31    14    43 1   
    32    15    38 1   
    33    15    39 1   
    34    15    40 1   
    35    16    17 1   
    36    16    44 1   
    37    16    45 1   
    38    17    18 1   
    39    18    19 2   
    40    18    20 1   
    41    20    21 1   
    42    20    22 1   
    43    20    23 1   
    44    21    52 1   
    45    21    53 1   
    46    21    54 1   
    47    22    46 1   
    48    22    47 1   
    49    22    48 1   
    50    23    49 1   
    51    23    50 1   
    52    23    51 1   
    53    24    29 1   
@<TRIPOS>SUBSTRUCTURE
     1 PN5         1 TEMP              0 ****  ****    0 ROOT
