@<TRIPOS>MOLECULE
PN6
   45    47     1     0     0
SMALL
bcc


@<TRIPOS>ATOM
      1 C6          -1.8330     0.4360    -0.0020 ce         1 PN6      -0.196800
      2 C2          -2.9670    -0.4320     0.1650 cc         1 PN6       0.349100
      3 C4          -4.0210    -2.2720     0.4710 cd         1 PN6       0.405400
      4 C23         -6.5700     0.9760     0.0590 c3         1 PN6      -0.088767
      5 C24         -4.7330     1.7740    -1.4160 c3         1 PN6      -0.088767
      6 C25         -4.6480     2.1860     1.0660 c3         1 PN6      -0.088767
      7 C1          -4.3160    -0.1070     0.1510 cd         1 PN6      -0.163900
      8 N5          -4.9460    -1.2980     0.3480 na         1 PN6      -0.292900
      9 N3          -2.8180    -1.7860     0.3660 nc         1 PN6      -0.700000
     10 C7          -0.5360     0.0670     0.0310 cd         1 PN6      -0.031600
     11 C8           0.5140     1.0820    -0.1700 c          1 PN6       0.717700
     12 O20          0.2750     2.2540    -0.4080 o          1 PN6      -0.618500
     13 N9           1.7900     0.6250    -0.0790 ns         1 PN6      -0.476100
     14 N12         -0.1340    -1.2480     0.2310 ns         1 PN6      -0.471100
     15 C11          1.1310    -1.7060     0.3080 c          1 PN6       0.716700
     16 O21          1.3820    -2.8860     0.4880 o          1 PN6      -0.616500
     17 C10          2.1970    -0.6770     0.1770 cc         1 PN6      -0.030600
     18 C13          3.4810    -1.0560     0.2810 cf         1 PN6      -0.118200
     19 C14          4.6730    -0.2100     0.2150 ca         1 PN6      -0.055800
     20 C15          4.7500     1.0480     0.8210 ca         1 PN6      -0.121500
     21 C16          5.9100     1.8040     0.7380 ca         1 PN6      -0.126000
     22 C17          7.0160     1.3180     0.0530 ca         1 PN6      -0.123000
     23 C18          6.9590     0.0600    -0.5360 ca         1 PN6      -0.126000
     24 C19          5.8040    -0.6980    -0.4480 ca         1 PN6      -0.121500
     25 H1          -2.0160     1.4860    -0.1760 ha         1 PN6       0.159000
     26 H2          -4.2830    -3.3040     0.6350 h5         1 PN6       0.061100
     27 H3          -6.9400     0.3060    -0.7200 hc         1 PN6       0.041478
     28 H4          -6.8700     0.5820     1.0320 hc         1 PN6       0.041478
     29 H5          -7.0810     1.9300    -0.0750 hc         1 PN6       0.041478
     30 H6          -5.2860     2.7020    -1.5740 hc         1 PN6       0.041478
     31 H7          -3.6730     1.9980    -1.5330 hc         1 PN6       0.041478
     32 H8          -5.0150     1.0770    -2.2060 hc         1 PN6       0.041478
     33 H9          -4.8990     1.8000     2.0540 hc         1 PN6       0.041478
     34 H10         -3.5810     2.4050     1.0540 hc         1 PN6       0.041478
     35 H11         -5.1780     3.1300     0.9300 hc         1 PN6       0.041478
     36 H12         -5.9430    -1.4410     0.3930 hn         1 PN6       0.305700
     37 H14         -0.8980    -1.9190     0.3380 hn         1 PN6       0.376500
     38 H15          3.6500    -2.1190     0.3900 ha         1 PN6       0.166000
     39 H17          3.9180     1.4300     1.4000 ha         1 PN6       0.134500
     40 H18          5.9530     2.7710     1.2210 ha         1 PN6       0.133000
     41 H19          7.9200     1.9100    -0.0100 ha         1 PN6       0.132000
     42 H20          7.8200    -0.3320    -1.0620 ha         1 PN6       0.133000
     43 H21          5.7690    -1.6800    -0.9050 ha         1 PN6       0.134500
     44 H13          2.5070     1.3140    -0.2660 hn         1 PN6       0.333500
     45 C22         -5.0560     1.1950    -0.0330 c3         1 PN6       0.028300
@<TRIPOS>BOND
     1     1     2 1   
     2     1    10 2   
     3     1    25 1   
     4     2     7 2   
     5     2     9 1   
     6     3     8 1   
     7     3     9 2   
     8     3    26 1   
     9     4    27 1   
    10     4    28 1   
    11     4    29 1   
    12     4    45 1   
    13     5    30 1   
    14     5    31 1   
    15     5    32 1   
    16     5    45 1   
    17     6    33 1   
    18     6    34 1   
    19     6    35 1   
    20     6    45 1   
    21     7     8 1   
    22     7    45 1   
    23     8    36 1   
    24    10    11 1   
    25    10    14 1   
    26    11    12 2   
    27    11    13 1   
    28    13    17 1   
    29    13    44 1   
    30    14    15 1   
    31    14    37 1   
    32    15    16 2   
    33    15    17 1   
    34    17    18 2   
    35    18    19 1   
    36    18    38 1   
    37    19    20 ar  
    38    19    24 ar  
    39    20    21 ar  
    40    20    39 1   
    41    21    22 ar  
    42    21    40 1   
    43    22    23 ar  
    44    22    41 1   
    45    23    24 ar  
    46    23    42 1   
    47    24    43 1   
@<TRIPOS>SUBSTRUCTURE
     1 PN6         1 TEMP              0 ****  ****    0 ROOT
