@<TRIPOS>MOLECULE
PN6
   45    47     1     0     0
SMALL
No Charge or Current Charge


@<TRIPOS>ATOM
      1 C6          -1.9230     0.3620     0.0260 ce         1 PN6      -0.246800
      2 C2          -3.1090    -0.4830     0.1570 cc         1 PN6       0.283800
      3 C4          -4.1410    -2.3620     0.4000 cd         1 PN6       0.405400
      4 C23         -6.7160     0.9950     0.1010 c3         1 PN6      -0.088767
      5 C24         -4.8420     1.8410    -1.3360 c3         1 PN6      -0.088767
      6 C25         -4.7630     2.1270     1.1960 c3         1 PN6      -0.088767
      7 C1          -4.4500    -0.1530     0.1600 cd         1 PN6      -0.149300
      8 N5          -5.0970    -1.3740     0.3170 na         1 PN6      -0.292500
      9 N3          -2.9330    -1.8320     0.3030 nc         1 PN6      -0.700000
     10 C7          -0.5660     0.0960     0.0150 cd         1 PN6      -0.031600
     11 C8           0.4750     1.1690    -0.1410 c          1 PN6       0.575200
     12 O20          0.2280     2.3590    -0.2780 o          1 PN6      -0.543000
     13 N9           1.7770     0.7190    -0.1250 ns         1 PN6      -0.409100
     14 N12         -0.1320    -1.2110     0.1490 ns         1 PN6      -0.404100
     15 C11          1.1650    -1.6610     0.1650 c          1 PN6       0.574200
     16 O21          1.3960    -2.8550     0.2930 o          1 PN6      -0.541000
     17 C10          2.2240    -0.5980     0.0220 cc         1 PN6      -0.030600
     18 C13          3.5620    -0.9170     0.0320 cf         1 PN6      -0.168200
     19 C14          4.8290    -0.1480     0.0860 ca         1 PN6      -0.055800
     20 C15          4.8800     1.2450     0.3200 ca         1 PN6      -0.103500
     21 C16          6.1130     1.9190     0.3630 ca         1 PN6      -0.108000
     22 C17          7.3120     1.2140     0.1790 ca         1 PN6      -0.105000
     23 C18          7.2770    -0.1720    -0.0410 ca         1 PN6      -0.108000
     24 C19          6.0440    -0.8460    -0.0820 ca         1 PN6      -0.103500
     25 H1          -2.1550     1.4160    -0.0880 ha         1 PN6       0.209000
     26 H2          -4.3910    -3.4100     0.5250 h5         1 PN6       0.061100
     27 H3          -7.0710     0.3480    -0.7110 hc         1 PN6       0.041478
     28 H4          -7.0170     0.5470     1.0560 hc         1 PN6       0.041478
     29 H5          -7.2360     1.9560     0.0090 hc         1 PN6       0.041478
     30 H6          -5.3930     2.7810    -1.4650 hc         1 PN6       0.041478
     31 H7          -3.7760     2.0710    -1.4340 hc         1 PN6       0.041478
     32 H8          -5.1170     1.1720    -2.1600 hc         1 PN6       0.041478
     33 H9          -4.9830     1.6600     2.1640 hc         1 PN6       0.041478
     34 H10         -3.6960     2.3650     1.1750 hc         1 PN6       0.041478
     35 H11         -5.3130     3.0750     1.1460 hc         1 PN6       0.041478
     36 H12         -6.0950    -1.5320     0.3650 hn         1 PN6       0.356000
     37 H14         -0.8360    -1.9370     0.2510 hn         1 PN6       0.376500
     38 H15          3.7320    -1.9950     0.0910 ha         1 PN6       0.216000
     39 H17          3.9800     1.8210     0.4990 ha         1 PN6       0.116500
     40 H18          6.1390     2.9910     0.5470 ha         1 PN6       0.115000
     41 H19          8.2650     1.7370     0.2130 ha         1 PN6       0.114000
     42 H20          8.2040    -0.7240    -0.1790 ha         1 PN6       0.115000
     43 H21          6.0390    -1.9200    -0.2560 ha         1 PN6       0.116500
     44 H13          2.4610     1.4500    -0.2630 hn         1 PN6       0.333500
     45 C22         -5.1740     1.1880     0.0310 c3         1 PN6       0.028300
@<TRIPOS>BOND
     1     1     2 1   
     2     1    10 2   
     3     1    25 1   
     4     2     7 2   
     5     2     9 1   
     6     3     8 1   
     7     3     9 2   
     8     3    26 1   
     9     4    27 1   
    10     4    28 1   
    11     4    29 1   
    12     4    45 1   
    13     5    30 1   
    14     5    31 1   
    15     5    32 1   
    16     5    45 1   
    17     6    33 1   
    18     6    34 1   
    19     6    35 1   
    20     6    45 1   
    21     7     8 1   
    22     7    45 1   
    23     8    36 1   
    24    10    11 1   
    25    10    14 1   
    26    11    12 2   
    27    11    13 1   
    28    13    17 1   
    29    13    44 1   
    30    14    15 1   
    31    14    37 1   
    32    15    16 2   
    33    15    17 1   
    34    17    18 2   
    35    18    19 1   
    36    18    38 1   
    37    19    20 ar  
    38    19    24 ar  
    39    20    21 ar  
    40    20    39 1   
    41    21    22 ar  
    42    21    40 1   
    43    22    23 ar  
    44    22    41 1   
    45    23    24 ar  
    46    23    42 1   
    47    24    43 1   
@<TRIPOS>SUBSTRUCTURE
     1 PN6         1 TEMP              0 ****  ****    0 ROOT
