@<TRIPOS>MOLECULE
PN8
   28    28     1     0     0
SMALL
No Charge or Current Charge


@<TRIPOS>ATOM
      1 C3         -66.6490   -41.7350    -5.1310 c6         1 PN8       0.176300
      2 C2         -65.9590   -42.9540    -7.3310 c3         1 PN8       0.255800
      3 C6         -69.1630   -40.7410    -6.4430 c6         1 PN8       0.149300
      4 C4         -67.8480   -41.1980    -4.3010 c6         1 PN8      -0.145400
      5 C1         -67.1200   -42.2790    -6.5140 c6         1 PN8      -0.095700
      6 O1         -65.6800   -40.6980    -5.3080 oh         1 PN8      -0.722000
      7 N          -65.5980   -42.2500    -8.5820 n7         1 PN8      -0.637200
      8 N1         -64.8680   -41.1140    -8.3870 n1         1 PN8       0.247000
      9 N2         -64.1790   -40.2200    -8.2270 n1         1 PN8       0.263000
     10 C5         -68.6870   -40.1510    -5.0820 c6         1 PN8       0.142300
     11 O2         -69.8230   -39.7460    -4.3000 oh         1 PN8      -0.713000
     12 O3         -69.9420   -39.7700    -7.1640 oh         1 PN8      -0.667000
     13 C          -67.9300   -41.1870    -7.2810 c6         1 PN8       0.182300
     14 O          -68.3480   -41.6670    -8.5690 oh         1 PN8      -0.739000
     15 H2         -66.1950   -42.5670    -4.5690 h1         1 PN8       0.051700
     16 H7         -66.3010   -43.9670    -7.5880 h1         1 PN8       0.103700
     17 H6         -65.0790   -43.0950    -6.6860 h1         1 PN8       0.103700
     18 H4         -69.7800   -41.6280    -6.2330 h1         1 PN8       0.064700
     19 H10        -68.4920   -42.0420    -4.0170 hc         1 PN8       0.073700
     20 H9         -67.4840   -40.7650    -3.3600 hc         1 PN8       0.073700
     21 H1         -67.8130   -43.1060    -6.3010 hc         1 PN8       0.113700
     22 H8         -65.3200   -40.4870    -4.4160 ho         1 PN8       0.476000
     23 HN         -66.5060   -42.0070    -9.0290 hn         1 PN8       0.593000
     24 H3         -68.0480   -39.2780    -5.2890 h1         1 PN8       0.051700
     25 H11        -69.4750   -39.3370    -3.4720 ho         1 PN8       0.523000
     26 H12        -70.4770   -39.3180    -6.4690 ho         1 PN8       0.485000
     27 H          -67.2920   -40.3010    -7.4170 h1         1 PN8       0.040700
     28 H5         -69.1620   -41.1390    -8.7740 ho         1 PN8       0.548000
@<TRIPOS>BOND
     1     1     4 1   
     2     1     5 1   
     3     1     6 1   
     4     1    15 1   
     5     2     5 1   
     6     2     7 1   
     7     2    16 1   
     8     2    17 1   
     9     3    10 1   
    10     3    12 1   
    11     3    13 1   
    12     3    18 1   
    13     4    10 1   
    14     4    19 1   
    15     4    20 1   
    16     5    13 1   
    17     5    21 1   
    18     6    22 1   
    19     7     8 1   
    20     7    23 1   
    21     8     9 3   
    22    10    11 1   
    23    10    24 1   
    24    11    25 1   
    25    12    26 1   
    26    13    14 1   
    27    13    27 1   
    28    14    28 1   
@<TRIPOS>SUBSTRUCTURE
     1 PN8         1 TEMP              0 ****  ****    0 ROOT
