@<TRIPOS>MOLECULE
PN8
   28    28     1     0     0
SMALL
bcc


@<TRIPOS>ATOM
      1 C3         -66.6330   -41.6380    -5.2320 c6         1 PN8       0.153100
      2 C2         -66.1480   -42.8420    -7.4090 c3         1 PN8       0.255800
      3 C6         -69.2690   -40.8360    -6.2910 c6         1 PN8       0.126100
      4 C4         -67.7450   -41.1140    -4.3300 c6         1 PN8      -0.145400
      5 C1         -67.2190   -42.2580    -6.4930 c6         1 PN8      -0.095700
      6 O1         -65.7380   -40.6250    -5.6460 oh         1 PN8      -0.659800
      7 N          -65.4940   -41.8500    -8.2880 n7         1 PN8      -0.582000
      8 N1         -64.4610   -41.2350    -7.9450 n1         1 PN8       0.247000
      9 N2         -63.5360   -40.7180    -7.6370 n1         1 PN8       0.263000
     10 C5         -68.6860   -40.1600    -5.0560 c6         1 PN8       0.119100
     11 O2         -69.7770   -39.7790    -4.2440 oh         1 PN8      -0.590800
     12 O3         -70.0890   -39.9670    -7.0360 oh         1 PN8      -0.604800
     13 C          -68.1500   -41.2910    -7.2200 c6         1 PN8       0.159100
     14 O          -68.6400   -41.9540    -8.3600 oh         1 PN8      -0.616800
     15 H2         -66.0910   -42.4240    -4.6900 h1         1 PN8       0.051700
     16 H7         -66.5710   -43.5610    -8.1040 h1         1 PN8       0.103700
     17 H6         -65.3680   -43.3500    -6.8430 h1         1 PN8       0.103700
     18 H4         -69.8340   -41.7260    -5.9650 h1         1 PN8       0.064700
     19 H10        -68.3170   -41.9700    -3.9590 hc         1 PN8       0.073700
     20 H9         -67.3110   -40.6240    -3.4530 hc         1 PN8       0.073700
     21 H1         -67.8110   -43.1240    -6.1740 hc         1 PN8       0.113700
     22 H8         -65.2860   -40.2720    -4.8730 ho         1 PN8       0.437000
     23 HN         -65.8690   -41.5830    -9.1950 hn         1 PN8       0.537800
     24 H3         -68.1240   -39.2760    -5.3850 h1         1 PN8       0.051700
     25 H11        -69.4620   -39.1680    -3.5710 ho         1 PN8       0.424000
     26 H12        -70.8100   -39.6720    -6.4710 ho         1 PN8       0.446000
     27 H          -67.5850   -40.3930    -7.5160 h1         1 PN8       0.040700
     28 H5         -69.1960   -41.3400    -8.8520 ho         1 PN8       0.449000
@<TRIPOS>BOND
     1     1     4 1   
     2     1     5 1   
     3     1     6 1   
     4     1    15 1   
     5     2     5 1   
     6     2     7 1   
     7     2    16 1   
     8     2    17 1   
     9     3    10 1   
    10     3    12 1   
    11     3    13 1   
    12     3    18 1   
    13     4    10 1   
    14     4    19 1   
    15     4    20 1   
    16     5    13 1   
    17     5    21 1   
    18     6    22 1   
    19     7     8 1   
    20     7    23 1   
    21     8     9 3   
    22    10    11 1   
    23    10    24 1   
    24    11    25 1   
    25    12    26 1   
    26    13    14 1   
    27    13    27 1   
    28    14    28 1   
@<TRIPOS>SUBSTRUCTURE
     1 PN8         1 TEMP              0 ****  ****    0 ROOT
