@<TRIPOS>MOLECULE
PNA
   36    37     1     0     0
SMALL
abcg2


@<TRIPOS>ATOM
      1 C1          -1.2190    -0.8930     0.6980 c6         1 PNA       0.357300
      2 C2          -2.5700    -1.4970     0.2990 c6         1 PNA       0.123300
      3 C3          -3.2450    -0.5900    -0.7270 c6         1 PNA       0.143300
      4 C4          -3.3220     0.8430    -0.2100 c6         1 PNA       0.147300
      5 C5          -1.9240     1.3230     0.1820 c6         1 PNA       0.170300
      6 C6          -1.9570     2.6820     0.8480 c3         1 PNA       0.169600
      7 C7           0.9470    -0.8280    -0.3250 ca         1 PNA       0.195100
      8 C8           1.5890    -0.3460     0.8180 ca         1 PNA      -0.179500
      9 C9           2.9630    -0.1960     0.8180 ca         1 PNA      -0.008500
     10 C10          3.6960    -0.5090    -0.3170 ca         1 PNA      -0.222200
     11 C11          3.0650    -0.9780    -1.4650 ca         1 PNA      -0.008500
     12 C12          1.6980    -1.1360    -1.4640 ca         1 PNA      -0.179500
     13 N1           5.1310    -0.3400    -0.3100 no         1 PNA       0.702200
     14 O1          -0.3730    -1.0340    -0.4310 os         1 PNA      -0.380100
     15 O2          -3.3950    -1.5870     1.4300 oh         1 PNA      -0.685000
     16 O3          -4.5540    -1.0040    -1.0300 oh         1 PNA      -0.648000
     17 O4          -3.8030     1.7160    -1.2030 oh         1 PNA      -0.721000
     18 O5          -1.3320     0.4200     1.1080 os         1 PNA      -0.442000
     19 O6          -0.6360     3.1010     1.0880 oh         1 PNA      -0.713000
     20 O7           5.6570     0.0500     0.7080 o          1 PNA      -0.406000
     21 O8           5.7410    -0.5940    -1.3240 o          1 PNA      -0.406000
     22 H1          -0.7940    -1.4450     1.5450 h2         1 PNA       0.081700
     23 H2          -2.3920    -2.4850    -0.1460 h1         1 PNA       0.052700
     24 H3          -2.6220    -0.5840    -1.6320 h1         1 PNA       0.059700
     25 H4          -3.9660     0.8690     0.6820 h1         1 PNA       0.071700
     26 H5          -1.3100     1.3910    -0.7270 h1         1 PNA       0.071700
     27 H61         -2.5400     2.6090     1.7770 h1         1 PNA       0.039700
     28 H62         -2.4900     3.3740     0.1880 h1         1 PNA       0.039700
     29 H8           1.0440    -0.0670     1.7060 ha         1 PNA       0.142500
     30 H9           3.4470     0.1780     1.7090 ha         1 PNA       0.151000
     31 H11          3.6280    -1.2260    -2.3530 ha         1 PNA       0.151000
     32 H12          1.1960    -1.5070    -2.3480 ha         1 PNA       0.142500
     33 HO2         -3.0720    -2.2990     1.9900 ho         1 PNA       0.506000
     34 HO3         -4.5130    -1.7460    -1.6400 ho         1 PNA       0.451000
     35 HO4         -4.6710     1.4040    -1.4800 ho         1 PNA       0.525000
     36 HO6         -0.6720     3.9790     1.4780 ho         1 PNA       0.507000
@<TRIPOS>BOND
     1     1     2 1   
     2     1    14 1   
     3     1    18 1   
     4     1    22 1   
     5     2     3 1   
     6     2    15 1   
     7     2    23 1   
     8     3     4 1   
     9     3    16 1   
    10     3    24 1   
    11     4     5 1   
    12     4    17 1   
    13     4    25 1   
    14     5     6 1   
    15     5    18 1   
    16     5    26 1   
    17     6    19 1   
    18     6    27 1   
    19     6    28 1   
    20     7     8 ar  
    21     7    12 ar  
    22     7    14 1   
    23     8     9 ar  
    24     8    29 1   
    25     9    10 ar  
    26     9    30 1   
    27    10    11 ar  
    28    10    13 1   
    29    11    12 ar  
    30    11    31 1   
    31    12    32 1   
    32    13    20 1   
    33    13    21 1   
    34    15    33 1   
    35    16    34 1   
    36    17    35 1   
    37    19    36 1   
@<TRIPOS>SUBSTRUCTURE
     1 PNA         1 TEMP              0 ****  ****    0 ROOT
