@<TRIPOS>MOLECULE
PNA
   36    37     1     0     0
SMALL
No Charge or Current Charge


@<TRIPOS>ATOM
      1 C1          -1.2690    -1.0500     0.6330 c6         1 PNA       0.357300
      2 C2          -2.7010    -1.5720     0.2540 c6         1 PNA       0.123300
      3 C3          -3.3210    -0.6180    -0.8100 c6         1 PNA       0.143300
      4 C4          -3.3140     0.8570    -0.3000 c6         1 PNA       0.147300
      5 C5          -1.8670     1.2650     0.1230 c6         1 PNA       0.170300
      6 C6          -1.8150     2.6980     0.7500 c3         1 PNA       0.169600
      7 C7           0.9720    -0.8820    -0.3850 ca         1 PNA       0.195100
      8 C8           1.6070    -0.6130     0.8450 ca         1 PNA      -0.179500
      9 C9           2.9920    -0.3740     0.8910 ca         1 PNA      -0.008500
     10 C10          3.7620    -0.4050    -0.2950 ca         1 PNA      -0.222200
     11 C11          3.1210    -0.6790    -1.5250 ca         1 PNA      -0.008500
     12 C12          1.7360    -0.9160    -1.5600 ca         1 PNA      -0.179500
     13 N1           5.2370    -0.1510    -0.2490 no         1 PNA       0.702200
     14 O1          -0.3820    -1.1320    -0.5020 os         1 PNA      -0.380100
     15 O2          -3.5950    -1.6440     1.3980 oh         1 PNA      -0.685000
     16 O3          -4.6660    -1.0310    -1.1130 oh         1 PNA      -0.648000
     17 O4          -3.8470     1.7290    -1.3180 oh         1 PNA      -0.721000
     18 O5          -1.3430     0.3200     1.0970 os         1 PNA      -0.442000
     19 O6          -0.4970     3.0840     1.1940 oh         1 PNA      -0.713000
     20 O7           5.7570     0.0820     0.8500 o          1 PNA      -0.406000
     21 O8           5.8710    -0.1870    -1.3120 o          1 PNA      -0.406000
     22 H1          -0.8750    -1.6880     1.4380 h2         1 PNA       0.081700
     23 H2          -2.5910    -2.5700    -0.1960 h1         1 PNA       0.052700
     24 H3          -2.7040    -0.6700    -1.7210 h1         1 PNA       0.059700
     25 H4          -3.9480     0.9100     0.5990 h1         1 PNA       0.071700
     26 H5          -1.2170     1.2640    -0.7640 h1         1 PNA       0.071700
     27 H61         -2.5200     2.7250     1.5920 h1         1 PNA       0.039700
     28 H62         -2.1800     3.4130    -0.0000 h1         1 PNA       0.039700
     29 H8           1.0480    -0.5790     1.7750 ha         1 PNA       0.142500
     30 H9           3.4570    -0.1650     1.8530 ha         1 PNA       0.151000
     31 H11          3.6850    -0.7110    -2.4560 ha         1 PNA       0.151000
     32 H12          1.2490    -1.1270    -2.5090 ha         1 PNA       0.142500
     33 HO2         -3.2290    -2.3130     2.0240 ho         1 PNA       0.506000
     34 HO3         -5.0010    -1.4110    -0.2660 ho         1 PNA       0.451000
     35 HO4         -4.5950     1.2250    -1.7230 ho         1 PNA       0.525000
     36 HO6         -0.5850     3.9650     1.6270 ho         1 PNA       0.507000
@<TRIPOS>BOND
     1     1     2 1   
     2     1    14 1   
     3     1    18 1   
     4     1    22 1   
     5     2     3 1   
     6     2    15 1   
     7     2    23 1   
     8     3     4 1   
     9     3    16 1   
    10     3    24 1   
    11     4     5 1   
    12     4    17 1   
    13     4    25 1   
    14     5     6 1   
    15     5    18 1   
    16     5    26 1   
    17     6    19 1   
    18     6    27 1   
    19     6    28 1   
    20     7     8 ar  
    21     7    12 ar  
    22     7    14 1   
    23     8     9 ar  
    24     8    29 1   
    25     9    10 ar  
    26     9    30 1   
    27    10    11 ar  
    28    10    13 1   
    29    11    12 ar  
    30    11    31 1   
    31    12    32 1   
    32    13    20 1   
    33    13    21 1   
    34    15    33 1   
    35    16    34 1   
    36    17    35 1   
    37    19    36 1   
@<TRIPOS>SUBSTRUCTURE
     1 PNA         1 TEMP              0 ****  ****    0 ROOT
