@<TRIPOS>MOLECULE
PNC
   39    39     1     0     0
SMALL
No Charge or Current Charge


@<TRIPOS>ATOM
      1 C1          -0.3080     0.9560    -3.3860 ca         1 PNC      -0.042300
      2 C2           0.9290     0.6180    -3.9670 ca         1 PNC      -0.114000
      3 C3           1.1390    -0.6630    -4.5060 ca         1 PNC      -0.041000
      4 C4           0.1080    -1.6320    -4.4680 ca         1 PNC      -0.185200
      5 C5          -1.1330    -1.2900    -3.8810 ca         1 PNC      -0.041000
      6 C6          -1.3340    -0.0060    -3.3460 ca         1 PNC      -0.114000
      7 C7          -0.5290     2.3430    -2.8000 c3         1 PNC       0.148300
      8 C8          -0.2910     2.2360     1.0490 c3         1 PNC      -0.158400
      9 C9          -0.0680     0.8370     1.6710 c3         1 PNC      -0.057400
     10 C10          0.6090     0.8970     3.0610 c3         1 PNC      -0.162400
     11 C11          0.8090    -0.5050     3.6520 c          1 PNC       0.583100
     12 C12         -0.0230    -2.1100     5.4310 c3         1 PNC      -0.058000
     13 C13         -0.9340    -2.0750     6.6900 c          1 PNC       0.713000
     14 C14         -0.9530     2.1370    -0.3300 c          1 PNC       0.597100
     15 N1           0.3280    -3.0000    -5.0410 no         1 PNC       0.696200
     16 N2          -0.0260    -0.8210     4.6980 ns         1 PNC      -0.458900
     17 N3          -0.1250     2.4040    -1.3940 ns         1 PNC      -0.521900
     18 O2          -2.1370     1.8690    -0.4710 o          1 PNC      -0.588100
     19 O4          -0.6030    -3.8140    -4.9860 o          1 PNC      -0.406000
     20 O5           1.4300    -3.2540    -5.5440 o          1 PNC      -0.406000
     21 O6           1.6680    -1.2750     3.2450 o          1 PNC      -0.660100
     22 O7          -1.9490    -1.3910     6.6580 o          1 PNC      -0.729500
     23 O8          -0.5720    -2.6950     7.6790 o          1 PNC      -0.729500
     24 H2           1.7320     1.3510    -4.0010 ha         1 PNC       0.128000
     25 H3           2.1060    -0.8950    -4.9490 ha         1 PNC       0.149500
     26 H5          -1.9460    -2.0120    -3.8340 ha         1 PNC       0.149500
     27 H6          -2.2920     0.2420    -2.8940 ha         1 PNC       0.128000
     28 H71         -1.5860     2.6250    -2.8940 h1         1 PNC       0.059700
     29 H72          0.0590     3.0780    -3.3660 h1         1 PNC       0.059700
     30 H81         -0.9470     2.8120     1.7130 hc         1 PNC       0.053200
     31 H82          0.6810     2.7360     0.9630 hc         1 PNC       0.053200
     32 H91          0.5490     0.2340     0.9920 hc         1 PNC       0.066200
     33 H92         -1.0340     0.3220     1.7620 hc         1 PNC       0.066200
     34 H101        -0.0210     1.5000     3.7270 hc         1 PNC       0.046700
     35 H102         1.5900     1.3750     2.9480 hc         1 PNC       0.046700
     36 H121         1.0030    -2.3440     5.7420 h1         1 PNC       0.036700
     37 H122        -0.3820    -2.9040     4.7640 h1         1 PNC       0.036700
     38 HN2         -0.7100    -0.1210     4.9690 hn         1 PNC       0.337500
     39 HN3          0.8410     2.6230    -1.1780 hn         1 PNC       0.317500
@<TRIPOS>BOND
     1     1     2 ar  
     2     1     6 ar  
     3     1     7 1   
     4     2     3 ar  
     5     2    24 1   
     6     3     4 ar  
     7     3    25 1   
     8     4     5 ar  
     9     4    15 1   
    10     5     6 ar  
    11     5    26 1   
    12     6    27 1   
    13     7    17 1   
    14     7    28 1   
    15     7    29 1   
    16     8     9 1   
    17     8    14 1   
    18     8    30 1   
    19     8    31 1   
    20     9    10 1   
    21     9    32 1   
    22     9    33 1   
    23    10    11 1   
    24    10    34 1   
    25    10    35 1   
    26    11    16 1   
    27    11    21 2   
    28    12    13 1   
    29    12    16 1   
    30    12    36 1   
    31    12    37 1   
    32    13    22 1   
    33    13    23 1   
    34    14    17 1   
    35    14    18 2   
    36    15    19 1   
    37    15    20 1   
    38    16    38 1   
    39    17    39 1   
@<TRIPOS>SUBSTRUCTURE
     1 PNC         1 TEMP              0 ****  ****    0 ROOT
