@<TRIPOS>MOLECULE
PNC
   39    39     1     0     0
SMALL
abcg2


@<TRIPOS>ATOM
      1 C1          -0.4680     0.9260    -3.5020 ca         1 PNC      -0.042300
      2 C2           0.5230     0.0500    -3.0720 ca         1 PNC      -0.114000
      3 C3           0.8130    -1.1010    -3.7850 ca         1 PNC      -0.041000
      4 C4           0.0990    -1.3710    -4.9440 ca         1 PNC      -0.185200
      5 C5          -0.8950    -0.5130    -5.3960 ca         1 PNC      -0.041000
      6 C6          -1.1700     0.6280    -4.6680 ca         1 PNC      -0.114000
      7 C7          -0.7740     2.2120    -2.7760 c3         1 PNC       0.148300
      8 C8          -0.4130     1.7470     0.9580 c3         1 PNC      -0.158400
      9 C9          -0.2420     0.4230     1.6940 c3         1 PNC      -0.057400
     10 C10          0.2790     0.6450     3.1080 c3         1 PNC      -0.162400
     11 C11          0.5450    -0.6510     3.8440 c          1 PNC       0.583100
     12 C12          0.4080    -1.7700     6.0230 c3         1 PNC      -0.058000
     13 C13         -0.1060    -1.4530     7.4430 c          1 PNC       0.713000
     14 C14         -0.9730     1.5660    -0.4340 c          1 PNC       0.597100
     15 N1           0.3960    -2.5750    -5.6980 no         1 PNC       0.696200
     16 N2           0.1840    -0.6630     5.1300 ns         1 PNC      -0.458900
     17 N3          -0.3400     2.2490    -1.4060 ns         1 PNC      -0.521900
     18 O2          -1.9420     0.8590    -0.6650 o          1 PNC      -0.588100
     19 O4          -0.2480    -2.7950    -6.6980 o          1 PNC      -0.406000
     20 O5           1.2730    -3.3010    -5.2920 o          1 PNC      -0.406000
     21 O6           1.0800    -1.6100     3.2940 o          1 PNC      -0.660100
     22 O7          -0.6240    -0.3340     7.6250 o          1 PNC      -0.729500
     23 O8           0.0490    -2.3620     8.2760 o          1 PNC      -0.729500
     24 H2           1.0800     0.2580    -2.1690 ha         1 PNC       0.128000
     25 H3           1.5850    -1.7690    -3.4330 ha         1 PNC       0.149500
     26 H5          -1.4510    -0.7240    -6.2970 ha         1 PNC       0.149500
     27 H6          -1.9470     1.2980    -5.0160 ha         1 PNC       0.128000
     28 H71         -1.8460     2.4120    -2.8380 h1         1 PNC       0.059700
     29 H72         -0.2780     3.0320    -3.2970 h1         1 PNC       0.059700
     30 H81         -1.1100     2.3880     1.5080 hc         1 PNC       0.053200
     31 H82          0.5380     2.2830     0.9290 hc         1 PNC       0.053200
     32 H91          0.4520    -0.2170     1.1450 hc         1 PNC       0.066200
     33 H92         -1.1970    -0.1030     1.7320 hc         1 PNC       0.066200
     34 H101        -0.4170     1.2740     3.6700 hc         1 PNC       0.046700
     35 H102         1.2250     1.1970     3.0690 hc         1 PNC       0.046700
     36 H121         1.4740    -2.0140     6.0810 h1         1 PNC       0.036700
     37 H122        -0.0930    -2.6720     5.6600 h1         1 PNC       0.036700
     38 HN2         -0.2600     0.1400     5.5490 hn         1 PNC       0.337500
     39 HN3          0.4690     2.8010    -1.1770 hn         1 PNC       0.317500
@<TRIPOS>BOND
     1     1     2 ar  
     2     1     6 ar  
     3     1     7 1   
     4     2     3 ar  
     5     2    24 1   
     6     3     4 ar  
     7     3    25 1   
     8     4     5 ar  
     9     4    15 1   
    10     5     6 ar  
    11     5    26 1   
    12     6    27 1   
    13     7    17 1   
    14     7    28 1   
    15     7    29 1   
    16     8     9 1   
    17     8    14 1   
    18     8    30 1   
    19     8    31 1   
    20     9    10 1   
    21     9    32 1   
    22     9    33 1   
    23    10    11 1   
    24    10    34 1   
    25    10    35 1   
    26    11    16 1   
    27    11    21 2   
    28    12    13 1   
    29    12    16 1   
    30    12    36 1   
    31    12    37 1   
    32    13    22 1   
    33    13    23 1   
    34    14    17 1   
    35    14    18 2   
    36    15    19 1   
    37    15    20 1   
    38    16    38 1   
    39    17    39 1   
@<TRIPOS>SUBSTRUCTURE
     1 PNC         1 TEMP              0 ****  ****    0 ROOT
