@<TRIPOS>MOLECULE
PND
   18    18     1     0     0
SMALL
No Charge or Current Charge


@<TRIPOS>ATOM
      1 N1           4.0370     0.7120    -0.2070 n8         1 PND      -0.711000
      2 C1           1.6710    -0.2590    -0.1050 ca         1 PND       0.408000
      3 N2           3.0750    -0.4030    -0.1750 nu         1 PND      -0.773000
      4 C2           0.8690    -1.4080    -0.0820 ca         1 PND      -0.210500
      5 C3          -0.5310    -1.3050    -0.0130 ca         1 PND       0.009500
      6 C4          -1.1460    -0.0330     0.0350 ca         1 PND      -0.256200
      7 N4          -2.6360     0.0850     0.1090 no         1 PND       0.705200
      8 O3          -3.3060    -0.9560     0.1270 o          1 PND      -0.417000
      9 O4          -3.1320     1.2180     0.1480 o          1 PND      -0.417000
     10 C5          -0.3370     1.1250     0.0110 ca         1 PND       0.009500
     11 C6           1.0610     1.0060    -0.0580 ca         1 PND      -0.210500
     12 HN11         4.6770     0.7780     0.6060 hn         1 PND       0.410000
     13 HN12         4.5960     0.8010    -1.0750 hn         1 PND       0.410000
     14 HN2          3.4020    -1.3850    -0.2040 hn         1 PND       0.488000
     15 H2           1.3280    -2.3920    -0.1180 ha         1 PND       0.131500
     16 H3          -1.1270    -2.2170     0.0040 ha         1 PND       0.146000
     17 H5          -0.7800     2.1190     0.0460 ha         1 PND       0.146000
     18 H6           1.6700     1.9050    -0.0750 ha         1 PND       0.131500
@<TRIPOS>BOND
     1     1     3 1   
     2     1    12 1   
     3     1    13 1   
     4     2     3 1   
     5     2     4 ar  
     6     2    11 ar  
     7     3    14 1   
     8     4     5 ar  
     9     4    15 1   
    10     5     6 ar  
    11     5    16 1   
    12     6     7 1   
    13     6    10 ar  
    14     7     8 1   
    15     7     9 1   
    16    10    11 ar  
    17    10    17 1   
    18    11    18 1   
@<TRIPOS>SUBSTRUCTURE
     1 PND         1 TEMP              0 ****  ****    0 ROOT
