@<TRIPOS>MOLECULE
PND
   18    18     1     0     0
SMALL
abcg2


@<TRIPOS>ATOM
      1 N1           3.8660     0.7150    -0.1950 n8         1 PND      -0.711000
      2 C1           1.6880    -0.2360    -0.1090 ca         1 PND       0.408000
      3 N2           3.0230    -0.3770    -0.1760 nu         1 PND      -0.773000
      4 C2           0.8740    -1.3900    -0.0840 ca         1 PND      -0.210500
      5 C3          -0.4920    -1.2880    -0.0150 ca         1 PND       0.009500
      6 C4          -1.0950    -0.0290     0.0320 ca         1 PND      -0.256200
      7 N4          -2.5170     0.0790     0.1060 no         1 PND       0.705200
      8 O3          -3.1780    -0.9410     0.1320 o          1 PND      -0.417000
      9 O4          -3.0160     1.1870     0.1400 o          1 PND      -0.417000
     10 C5          -0.3080     1.1220     0.0080 ca         1 PND       0.009500
     11 C6           1.0620     1.0260    -0.0610 ca         1 PND      -0.210500
     12 HN11         4.4950     0.6710     0.5970 hn         1 PND       0.410000
     13 HN12         4.4260     0.6960    -1.0380 hn         1 PND       0.410000
     14 HN2          3.4140    -1.3070    -0.2080 hn         1 PND       0.488000
     15 H2           1.3330    -2.3700    -0.1210 ha         1 PND       0.131500
     16 H3          -1.0880    -2.1890     0.0030 ha         1 PND       0.146000
     17 H5          -0.7620     2.1020     0.0430 ha         1 PND       0.146000
     18 H6           1.6650     1.9210    -0.0810 ha         1 PND       0.131500
@<TRIPOS>BOND
     1     1     3 1   
     2     1    12 1   
     3     1    13 1   
     4     2     3 1   
     5     2     4 ar  
     6     2    11 ar  
     7     3    14 1   
     8     4     5 ar  
     9     4    15 1   
    10     5     6 ar  
    11     5    16 1   
    12     6     7 1   
    13     6    10 ar  
    14     7     8 1   
    15     7     9 1   
    16    10    11 ar  
    17    10    17 1   
    18    11    18 1   
@<TRIPOS>SUBSTRUCTURE
     1 PND         1 TEMP              0 ****  ****    0 ROOT
