@<TRIPOS>MOLECULE
PNE
   39    39     1     0     0
SMALL
abcg2


@<TRIPOS>ATOM
      1 P1          -3.7540    -4.9780     3.6030 p5         1 PNE       1.388400
      2 O1          -3.9950    -3.9200     4.9320 os         1 PNE      -0.437500
      3 O2          -4.5760    -6.2050     3.8640 o          1 PNE      -0.802000
      4 O3          -3.9500    -4.1660     2.3570 o          1 PNE      -0.802000
      5 C8          -1.9950    -5.2970     3.9290 c3         1 PNE      -0.433400
      6 C9          -1.0710    -4.1000     3.7330 c3         1 PNE      -0.027400
      7 C10          0.3730    -4.4580     4.0560 c3         1 PNE      -0.157400
      8 C11          1.3270    -3.2870     3.9180 c          1 PNE       0.589100
      9 N2           2.5630    -3.6120     3.5260 ns         1 PNE      -0.477900
     10 O6           0.9840    -2.1380     4.1770 o          1 PNE      -0.661100
     11 C12          3.6560    -2.6810     3.3610 c3         1 PNE      -0.036300
     12 C1L          4.2220    -2.2170     4.7030 c3         1 PNE      -0.079100
     13 C13          4.7700    -3.3440     2.5140 c          1 PNE       0.715000
     14 O7           4.6430    -4.5560     2.2490 o          1 PNE      -0.735500
     15 O8           5.7100    -2.5980     2.1890 o          1 PNE      -0.735500
     16 C1          -5.1240    -3.2900     5.2280 ca         1 PNE       0.331100
     17 C2          -5.0900    -2.4140     6.3230 ca         1 PNE      -0.212500
     18 C6          -6.3290    -3.4520     4.5280 ca         1 PNE      -0.212500
     19 C4          -7.4020    -1.8990     6.0080 ca         1 PNE      -0.278200
     20 C5          -7.4570    -2.7600     4.9190 ca         1 PNE      -0.011500
     21 C3          -6.2150    -1.7240     6.7140 ca         1 PNE      -0.011500
     22 N1          -8.5850    -1.1830     6.4120 no         1 PNE       0.712200
     23 O4          -8.5080    -0.4330     7.3610 o          1 PNE      -0.451000
     24 O5          -9.6070    -1.3600     5.7850 o          1 PNE      -0.451000
     25 HC81        -1.8960    -5.6980     4.9410 hc         1 PNE       0.049700
     26 HC82        -1.7020    -6.1090     3.2560 hc         1 PNE       0.049700
     27 HC91        -1.1460    -3.7480     2.7020 hc         1 PNE       0.055700
     28 HC92        -1.3900    -3.2720     4.3680 hc         1 PNE       0.055700
     29 H101         0.4360    -4.8090     5.0920 hc         1 PNE       0.040700
     30 H102         0.7030    -5.2950     3.4360 hc         1 PNE       0.040700
     31 HN2          2.7800    -4.5620     3.2640 hn         1 PNE       0.334500
     32 H12          3.2960    -1.8030     2.8160 h1         1 PNE       0.050700
     33 H1L1         5.0250    -1.4990     4.5480 hc         1 PNE       0.020367
     34 H1L2         3.4540    -1.7390     5.3090 hc         1 PNE       0.020367
     35 H1L3         4.6230    -3.0610     5.2680 hc         1 PNE       0.020367
     36 HC2         -4.1630    -2.2850     6.8660 ha         1 PNE       0.143500
     37 HC6         -6.3990    -4.1210     3.6830 ha         1 PNE       0.143500
     38 HC5         -8.3760    -2.9000     4.3680 ha         1 PNE       0.127000
     39 HC3         -6.1610    -1.0580     7.5620 ha         1 PNE       0.127000
@<TRIPOS>BOND
     1     1     2 1   
     2     1     3 1   
     3     1     4 1   
     4     1     5 1   
     5     2    16 1   
     6     5     6 1   
     7     5    25 1   
     8     5    26 1   
     9     6     7 1   
    10     6    27 1   
    11     6    28 1   
    12     7     8 1   
    13     7    29 1   
    14     7    30 1   
    15     8     9 1   
    16     8    10 2   
    17     9    11 1   
    18     9    31 1   
    19    11    12 1   
    20    11    13 1   
    21    11    32 1   
    22    12    33 1   
    23    12    34 1   
    24    12    35 1   
    25    13    14 1   
    26    13    15 1   
    27    16    17 ar  
    28    16    18 ar  
    29    17    21 ar  
    30    17    36 1   
    31    18    20 ar  
    32    18    37 1   
    33    19    20 ar  
    34    19    21 ar  
    35    19    22 1   
    36    20    38 1   
    37    21    39 1   
    38    22    23 1   
    39    22    24 1   
@<TRIPOS>SUBSTRUCTURE
     1 PNE         1 TEMP              0 ****  ****    0 ROOT
