@<TRIPOS>MOLECULE
PNE
   39    39     1     0     0
SMALL
No Charge or Current Charge


@<TRIPOS>ATOM
      1 P1          -3.8110    -6.3960     4.1710 p5         1 PNE       1.388400
      2 O1          -4.5420    -5.4800     5.2810 os         1 PNE      -0.437500
      3 O2          -4.1570    -7.8410     4.3470 o          1 PNE      -0.802000
      4 O3          -4.0120    -5.9360     2.7630 o          1 PNE      -0.802000
      5 C8          -2.0530    -6.1610     4.6780 c3         1 PNE      -0.433400
      6 C9          -1.4480    -4.7480     4.5000 c3         1 PNE      -0.027400
      7 C10          0.0520    -4.6980     4.8650 c3         1 PNE      -0.157400
      8 C11          0.6290    -3.2880     4.6790 c          1 PNE       0.589100
      9 N2           1.4580    -3.1410     3.5890 ns         1 PNE      -0.477900
     10 O6           0.3930    -2.3720     5.4540 o          1 PNE      -0.661100
     11 C12          2.1760    -1.9000     3.2090 c3         1 PNE      -0.036300
     12 C1L          3.4140    -1.6670     4.1030 c3         1 PNE      -0.079100
     13 C13          2.5610    -1.9210     1.6950 c          1 PNE       0.715000
     14 O7           2.9580    -2.9720     1.2060 o          1 PNE      -0.735500
     15 O8           2.3450    -0.9170     1.0310 o          1 PNE      -0.735500
     16 C1          -4.8560    -4.1450     5.2820 ca         1 PNE       0.331100
     17 C2          -5.5530    -3.6620     6.3970 ca         1 PNE      -0.212500
     18 C6          -4.5120    -3.2510     4.2480 ca         1 PNE      -0.212500
     19 C4          -5.5730    -1.4100     5.4580 ca         1 PNE      -0.278200
     20 C5          -4.8670    -1.8940     4.3340 ca         1 PNE      -0.011500
     21 C3          -5.9140    -2.3080     6.4940 ca         1 PNE      -0.011500
     22 N1          -5.9530     0.0350     5.5520 no         1 PNE       0.712200
     23 O4          -6.5690     0.4150     6.5560 o          1 PNE      -0.451000
     24 O5          -5.6370     0.7860     4.6200 o          1 PNE      -0.451000
     25 HC81        -1.9910    -6.4640     5.7290 hc         1 PNE       0.049700
     26 HC82        -1.4780    -6.8860     4.0920 hc         1 PNE       0.049700
     27 HC91        -1.5740    -4.4220     3.4590 hc         1 PNE       0.055700
     28 HC92        -1.9890    -4.0330     5.1320 hc         1 PNE       0.055700
     29 H101         0.1610    -4.9880     5.9170 hc         1 PNE       0.040700
     30 H102         0.5880    -5.4110     4.2270 hc         1 PNE       0.040700
     31 HN2          1.5920    -3.9610     3.0060 hn         1 PNE       0.334500
     32 H12          1.4870    -1.0580     3.3520 h1         1 PNE       0.050700
     33 H1L1         3.9190    -0.7360     3.8200 hc         1 PNE       0.020367
     34 H1L2         3.1280    -1.5900     5.1580 hc         1 PNE       0.020367
     35 H1L3         4.1300    -2.4910     3.9990 hc         1 PNE       0.020367
     36 HC2         -5.8170    -4.3470     7.1980 ha         1 PNE       0.143500
     37 HC6         -3.9640    -3.5780     3.3730 ha         1 PNE       0.143500
     38 HC5         -4.5870    -1.2250     3.5210 ha         1 PNE       0.127000
     39 HC3         -6.4570    -1.9680     7.3750 ha         1 PNE       0.127000
@<TRIPOS>BOND
     1     1     2 1   
     2     1     3 1   
     3     1     4 1   
     4     1     5 1   
     5     2    16 1   
     6     5     6 1   
     7     5    25 1   
     8     5    26 1   
     9     6     7 1   
    10     6    27 1   
    11     6    28 1   
    12     7     8 1   
    13     7    29 1   
    14     7    30 1   
    15     8     9 1   
    16     8    10 2   
    17     9    11 1   
    18     9    31 1   
    19    11    12 1   
    20    11    13 1   
    21    11    32 1   
    22    12    33 1   
    23    12    34 1   
    24    12    35 1   
    25    13    14 1   
    26    13    15 1   
    27    16    17 ar  
    28    16    18 ar  
    29    17    21 ar  
    30    17    36 1   
    31    18    20 ar  
    32    18    37 1   
    33    19    20 ar  
    34    19    21 ar  
    35    19    22 1   
    36    20    38 1   
    37    21    39 1   
    38    22    23 1   
    39    22    24 1   
@<TRIPOS>SUBSTRUCTURE
     1 PNE         1 TEMP              0 ****  ****    0 ROOT
