@<TRIPOS>MOLECULE
PNF
   48    48     1     0     0
SMALL
bcc


@<TRIPOS>ATOM
      1 C1           0.6490     0.0720    -4.9870 ca         1 PNF       0.320100
      2 C2          -0.4240     0.7050    -5.6280 ca         1 PNF      -0.226500
      3 C3          -0.6630     0.4820    -6.9680 ca         1 PNF      -0.030000
      4 C4           0.1660    -0.3730    -7.6860 ca         1 PNF      -0.268200
      5 C5           1.2410    -1.0040    -7.0680 ca         1 PNF      -0.030000
      6 C6           1.4750    -0.7830    -5.7290 ca         1 PNF      -0.226500
      7 P1          -0.1870     0.7180    -2.5100 p5         1 PNF       1.229600
      8 O1           0.9480     0.2460    -3.7030 os         1 PNF      -0.454500
      9 O2          -0.3990     2.1980    -2.6450 o          1 PNF      -0.795000
     10 O3          -1.3410    -0.2340    -2.6100 o          1 PNF      -0.795000
     11 C8           0.8620     0.3390    -1.0730 c3         1 PNF      -0.276600
     12 C9           0.1090     0.6040     0.2290 c3         1 PNF      -0.040400
     13 C10          0.9590     0.2740     1.4560 c3         1 PNF      -0.156400
     14 C11          0.2210     0.6010     2.7360 c          1 PNF       0.664100
     15 N2          -0.1490    -0.4550     3.4780 ns         1 PNF      -0.575900
     16 O6          -0.0450     1.7580     3.0420 o          1 PNF      -0.615100
     17 C12         -0.8540    -0.3440     4.7360 c3         1 PNF       0.099000
     18 C13          0.0740    -0.2700     5.9430 c3         1 PNF      -0.099400
     19 C14         -0.6970    -0.1820     7.2540 c3         1 PNF      -0.077400
     20 C15          0.2100    -0.1400     8.4780 c3         1 PNF      -0.054400
     21 C16         -0.5690    -0.0740     9.7820 c3         1 PNF      -0.202400
     22 C17          0.2710    -0.0410    11.0710 c          1 PNF       0.926600
     23 O7           1.5030     0.1220    10.9620 o          1 PNF      -0.852800
     24 O8          -0.3630    -0.1700    12.1400 o          1 PNF      -0.852800
     25 N1          -0.0880    -0.6030    -9.0860 no         1 PNF       0.330200
     26 O4           0.6580    -1.3410    -9.6930 o          1 PNF      -0.254500
     27 O5          -1.0380    -0.0510    -9.5970 o          1 PNF      -0.254500
     28 H21         -1.0610     1.3930    -5.0910 ha         1 PNF       0.160000
     29 H31         -1.4940     0.9810    -7.4450 ha         1 PNF       0.148000
     30 H51          1.8910    -1.6690    -7.6190 ha         1 PNF       0.148000
     31 H61          2.3060    -1.2730    -5.2390 ha         1 PNF       0.160000
     32 H81          1.7650     0.9540    -1.1110 hc         1 PNF       0.053700
     33 H82          1.1790    -0.7060    -1.1170 hc         1 PNF       0.053700
     34 H91         -0.8040     0.0030     0.2510 hc         1 PNF       0.056700
     35 H92         -0.1990     1.6500     0.2710 hc         1 PNF       0.056700
     36 H101         1.8740     0.8710     1.4370 hc         1 PNF       0.047700
     37 H102         1.2600    -0.7760     1.4230 hc         1 PNF       0.047700
     38 HN21         0.1310    -1.3740     3.1800 hn         1 PNF       0.304500
     39 H121        -1.5120    -1.2100     4.8270 h1         1 PNF       0.047200
     40 H122        -1.4940     0.5380     4.7000 h1         1 PNF       0.047200
     41 H131         0.7320     0.5990     5.8390 hc         1 PNF       0.041700
     42 H132         0.7220    -1.1520     5.9550 hc         1 PNF       0.041700
     43 H141        -1.3770    -1.0380     7.3330 hc         1 PNF       0.024200
     44 H142        -1.3360     0.7090     7.2410 hc         1 PNF       0.024200
     45 H151         0.8810     0.7200     8.4010 hc         1 PNF       0.038700
     46 H152         0.8540    -1.0250     8.4760 hc         1 PNF       0.038700
     47 H161        -1.2610    -0.9220     9.8420 hc         1 PNF       0.014200
     48 H162        -1.2130     0.8150     9.7780 hc         1 PNF       0.014200
@<TRIPOS>BOND
     1     1     2 ar  
     2     1     6 ar  
     3     1     8 1   
     4     2     3 ar  
     5     2    28 1   
     6     3     4 ar  
     7     3    29 1   
     8     4     5 ar  
     9     4    25 1   
    10     5     6 ar  
    11     5    30 1   
    12     6    31 1   
    13     7     8 1   
    14     7     9 1   
    15     7    10 1   
    16     7    11 1   
    17    11    12 1   
    18    11    32 1   
    19    11    33 1   
    20    12    13 1   
    21    12    34 1   
    22    12    35 1   
    23    13    14 1   
    24    13    36 1   
    25    13    37 1   
    26    14    15 1   
    27    14    16 2   
    28    15    17 1   
    29    15    38 1   
    30    17    18 1   
    31    17    39 1   
    32    17    40 1   
    33    18    19 1   
    34    18    41 1   
    35    18    42 1   
    36    19    20 1   
    37    19    43 1   
    38    19    44 1   
    39    20    21 1   
    40    20    45 1   
    41    20    46 1   
    42    21    22 1   
    43    21    47 1   
    44    21    48 1   
    45    22    23 1   
    46    22    24 1   
    47    25    26 1   
    48    25    27 1   
@<TRIPOS>SUBSTRUCTURE
     1 PNF         1 TEMP              0 ****  ****    0 ROOT
