@<TRIPOS>MOLECULE
PNF
   48    48     1     0     0
SMALL
No Charge or Current Charge


@<TRIPOS>ATOM
      1 C1           0.5570    -0.1340    -5.0300 ca         1 PNF       0.320100
      2 C2          -0.5040     0.5270    -5.6800 ca         1 PNF      -0.208500
      3 C3          -0.5970     0.5070    -7.0830 ca         1 PNF      -0.012000
      4 C4           0.3720    -0.1740    -7.8530 ca         1 PNF      -0.268200
      5 C5           1.4340    -0.8350    -7.1960 ca         1 PNF      -0.012000
      6 C6           1.5180    -0.8100    -5.7940 ca         1 PNF      -0.208500
      7 P1          -0.2510     0.5320    -2.5720 p5         1 PNF       1.387400
      8 O1           0.7080    -0.1550    -3.6690 os         1 PNF      -0.454500
      9 O2          -0.2540     2.0230    -2.6740 o          1 PNF      -0.795000
     10 O3          -1.6240    -0.0580    -2.5680 o          1 PNF      -0.795000
     11 C8           0.6550     0.0130    -1.0590 c3         1 PNF      -0.434400
     12 C9           0.0270     0.4870     0.2730 c3         1 PNF      -0.040400
     13 C10          0.8320     0.0220     1.5070 c3         1 PNF      -0.156400
     14 C11          0.1810     0.4900     2.8140 c          1 PNF       0.597100
     15 N2          -0.4430    -0.5010     3.5390 ns         1 PNF      -0.508900
     16 O6           0.2350     1.6500     3.1980 o          1 PNF      -0.615100
     17 C12         -1.0960    -0.3060     4.8360 c3         1 PNF       0.099000
     18 C13         -0.0820    -0.2650     5.9970 c3         1 PNF      -0.099400
     19 C14         -0.7560    -0.0880     7.3750 c3         1 PNF      -0.077400
     20 C15          0.2550    -0.0500     8.5440 c3         1 PNF      -0.054400
     21 C16         -0.4190     0.1260     9.9270 c3         1 PNF      -0.202400
     22 C17          0.6470     0.1530    11.0380 c          1 PNF       0.716000
     23 O7           1.1390     1.2290    11.3400 o          1 PNF      -0.747500
     24 O8           0.9870    -0.9090    11.5370 o          1 PNF      -0.747500
     25 N1           0.2750    -0.1960    -9.3480 no         1 PNF       0.710200
     26 O4           1.1450    -0.8060    -9.9830 o          1 PNF      -0.444500
     27 O5          -0.6720     0.3960    -9.8820 o          1 PNF      -0.444500
     28 H21         -1.2650     1.0600    -5.1200 ha         1 PNF       0.142000
     29 H31         -1.4270     1.0260    -7.5610 ha         1 PNF       0.130000
     30 H51          2.1970    -1.3690    -7.7610 ha         1 PNF       0.130000
     31 H61          2.3360    -1.3190    -5.2930 ha         1 PNF       0.142000
     32 H81          1.6750     0.4000    -1.1570 hc         1 PNF       0.053700
     33 H82          0.7070    -1.0810    -1.0860 hc         1 PNF       0.053700
     34 H91         -1.0010     0.1060     0.3490 hc         1 PNF       0.056700
     35 H92         -0.0400     1.5830     0.2760 hc         1 PNF       0.056700
     36 H101         1.8400     0.4480     1.4430 hc         1 PNF       0.047700
     37 H102         0.8910    -1.0730     1.4890 hc         1 PNF       0.047700
     38 HN21        -0.4300    -1.4320     3.1410 hn         1 PNF       0.304500
     39 H121        -1.8010    -1.1320     4.9960 h1         1 PNF       0.047200
     40 H122        -1.6710     0.6290     4.8120 h1         1 PNF       0.047200
     41 H131         0.6240     0.5580     5.8330 hc         1 PNF       0.041700
     42 H132         0.5010    -1.1940     5.9960 hc         1 PNF       0.041700
     43 H141        -1.4630    -0.9120     7.5370 hc         1 PNF       0.024200
     44 H142        -1.3400     0.8400     7.3730 hc         1 PNF       0.024200
     45 H151         0.9630     0.7730     8.3800 hc         1 PNF       0.038700
     46 H152         0.8400    -0.9780     8.5430 hc         1 PNF       0.038700
     47 H161        -1.0810    -0.7400    10.0500 hc         1 PNF       0.014200
     48 H162        -0.9510     1.0850     9.8810 hc         1 PNF       0.014200
@<TRIPOS>BOND
     1     1     2 ar  
     2     1     6 ar  
     3     1     8 1   
     4     2     3 ar  
     5     2    28 1   
     6     3     4 ar  
     7     3    29 1   
     8     4     5 ar  
     9     4    25 1   
    10     5     6 ar  
    11     5    30 1   
    12     6    31 1   
    13     7     8 1   
    14     7     9 1   
    15     7    10 1   
    16     7    11 1   
    17    11    12 1   
    18    11    32 1   
    19    11    33 1   
    20    12    13 1   
    21    12    34 1   
    22    12    35 1   
    23    13    14 1   
    24    13    36 1   
    25    13    37 1   
    26    14    15 1   
    27    14    16 2   
    28    15    17 1   
    29    15    38 1   
    30    17    18 1   
    31    17    39 1   
    32    17    40 1   
    33    18    19 1   
    34    18    41 1   
    35    18    42 1   
    36    19    20 1   
    37    19    43 1   
    38    19    44 1   
    39    20    21 1   
    40    20    45 1   
    41    20    46 1   
    42    21    22 1   
    43    21    47 1   
    44    21    48 1   
    45    22    23 1   
    46    22    24 1   
    47    25    26 1   
    48    25    27 1   
@<TRIPOS>SUBSTRUCTURE
     1 PNF         1 TEMP              0 ****  ****    0 ROOT
