@<TRIPOS>MOLECULE
PNG
   36    37     1     0     0
SMALL
bcc


@<TRIPOS>ATOM
      1 C1          -1.2220    -0.6970     0.8700 c6         1 PNG       0.313900
      2 C2          -2.5920    -1.3060     0.5690 c6         1 PNG       0.098100
      3 C3          -3.2930    -0.5120    -0.5260 c6         1 PNG       0.114100
      4 C4          -3.3310     0.9650    -0.1520 c6         1 PNG       0.125100
      5 C5          -1.9260     1.4700     0.1710 c6         1 PNG       0.145100
      6 C6          -1.9480     2.8820     0.7180 c3         1 PNG       0.147400
      7 C7           0.9210    -0.7720    -0.1900 ca         1 PNG       0.193100
      8 C8           1.5980    -0.2120     0.8950 ca         1 PNG      -0.198000
      9 C9           2.9770    -0.1130     0.8670 ca         1 PNG      -0.027000
     10 C10          3.6790    -0.5560    -0.2440 ca         1 PNG      -0.223200
     11 C11          3.0150    -1.1030    -1.3370 ca         1 PNG      -0.027000
     12 C12          1.6430    -1.2080    -1.3050 ca         1 PNG      -0.198000
     13 N1           5.1200    -0.4450    -0.2680 no         1 PNG       0.322200
     14 O1          -0.4070    -0.9330    -0.2610 os         1 PNG      -0.334900
     15 O2          -2.5010    -2.6450     0.1640 oh         1 PNG      -0.579800
     16 O3          -4.6260    -0.9330    -0.6950 oh         1 PNG      -0.605800
     17 O4          -3.8360     1.7500    -1.2030 oh         1 PNG      -0.590800
     18 O5          -1.3260     0.6510     1.1670 os         1 PNG      -0.406600
     19 O6          -0.6220     3.3160     0.9040 oh         1 PNG      -0.588800
     20 O7           5.6750     0.0300     0.6970 o          1 PNG      -0.217000
     21 O8           5.7060    -0.8330    -1.2530 o          1 PNG      -0.217000
     22 H1          -0.7780    -1.1720     1.7520 h2         1 PNG       0.081700
     23 H2          -3.1810    -1.2080     1.4910 h1         1 PNG       0.061700
     24 H3          -2.7320    -0.6180    -1.4670 h1         1 PNG       0.073700
     25 H4          -3.9520     1.0690     0.7520 h1         1 PNG       0.049700
     26 H5          -1.3240     1.4570    -0.7480 h1         1 PNG       0.079700
     27 H61         -2.5180     2.8900     1.6580 h1         1 PNG       0.037700
     28 H62         -2.4870     3.5170     0.0080 h1         1 PNG       0.037700
     29 H8           1.0760     0.1680     1.7600 ha         1 PNG       0.160500
     30 H9           3.4870     0.3210     1.7140 ha         1 PNG       0.168500
     31 H11          3.5540    -1.4520    -2.2050 ha         1 PNG       0.168500
     32 H12          1.1140    -1.6370    -2.1460 ha         1 PNG       0.160500
     33 HO2         -2.3860    -3.1990     0.9410 ho         1 PNG       0.414000
     34 HO3         -4.6230    -1.8080    -1.0940 ho         1 PNG       0.428000
     35 HO4         -4.7330     1.4580    -1.3940 ho         1 PNG       0.428000
     36 HO6         -0.6510     4.2220     1.2230 ho         1 PNG       0.408000
@<TRIPOS>BOND
     1     1     2 1   
     2     1    14 1   
     3     1    18 1   
     4     1    22 1   
     5     2     3 1   
     6     2    15 1   
     7     2    23 1   
     8     3     4 1   
     9     3    16 1   
    10     3    24 1   
    11     4     5 1   
    12     4    17 1   
    13     4    25 1   
    14     5     6 1   
    15     5    18 1   
    16     5    26 1   
    17     6    19 1   
    18     6    27 1   
    19     6    28 1   
    20     7     8 ar  
    21     7    12 ar  
    22     7    14 1   
    23     8     9 ar  
    24     8    29 1   
    25     9    10 ar  
    26     9    30 1   
    27    10    11 ar  
    28    10    13 1   
    29    11    12 ar  
    30    11    31 1   
    31    12    32 1   
    32    13    20 1   
    33    13    21 1   
    34    15    33 1   
    35    16    34 1   
    36    17    35 1   
    37    19    36 1   
@<TRIPOS>SUBSTRUCTURE
     1 PNG         1 TEMP              0 ****  ****    0 ROOT
