@<TRIPOS>MOLECULE
PNG
   36    37     1     0     0
SMALL
No Charge or Current Charge


@<TRIPOS>ATOM
      1 C1          -1.3000    -0.8230     0.8790 c6         1 PNG       0.360300
      2 C2          -2.7630    -1.3390     0.6200 c6         1 PNG       0.121300
      3 C3          -3.4180    -0.4920    -0.5100 c6         1 PNG       0.137300
      4 C4          -3.3620     1.0220    -0.1580 c6         1 PNG       0.148300
      5 C5          -1.8820     1.4330     0.1140 c6         1 PNG       0.168300
      6 C6          -1.7530     2.9290     0.5550 c3         1 PNG       0.170600
      7 C7           0.9200    -0.8610    -0.1970 ca         1 PNG       0.193100
      8 C8           1.5920    -0.4460     0.9730 ca         1 PNG      -0.180000
      9 C9           2.9830    -0.2450     0.9580 ca         1 PNG      -0.009000
     10 C10          3.7240    -0.4590    -0.2270 ca         1 PNG      -0.223200
     11 C11          3.0470    -0.8780    -1.3950 ca         1 PNG      -0.009000
     12 C12          1.6560    -1.0750    -1.3710 ca         1 PNG      -0.180000
     13 N1           5.2060    -0.2450    -0.2440 no         1 PNG       0.702200
     14 O1          -0.4410    -1.0830    -0.2530 os         1 PNG      -0.358100
     15 O2          -2.8240    -2.7470     0.2660 oh         1 PNG      -0.702000
     16 O3          -4.7780    -0.9130    -0.7240 oh         1 PNG      -0.668000
     17 O4          -3.9550     1.7860    -1.2250 oh         1 PNG      -0.713000
     18 O5          -1.3220     0.5970     1.1650 os         1 PNG      -0.453000
     19 O6          -0.4000     3.3200     0.8690 oh         1 PNG      -0.711000
     20 O7           5.7580     0.1190     0.8030 o          1 PNG      -0.407000
     21 O8           5.8140    -0.4430    -1.3050 o          1 PNG      -0.407000
     22 H1          -0.9040    -1.3580     1.7550 h2         1 PNG       0.081700
     23 H2          -3.3340    -1.1690     1.5450 h1         1 PNG       0.061700
     24 H3          -2.8320    -0.6500    -1.4290 h1         1 PNG       0.073700
     25 H4          -3.9340     1.1800     0.7690 h1         1 PNG       0.049700
     26 H5          -1.2920     1.3000    -0.8040 h1         1 PNG       0.079700
     27 H61         -2.4010     3.0830     1.4280 h1         1 PNG       0.037700
     28 H62         -2.1450     3.5600    -0.2550 h1         1 PNG       0.037700
     29 H8           1.0560    -0.2700     1.9000 ha         1 PNG       0.142500
     30 H9           3.4770     0.0780     1.8740 ha         1 PNG       0.150500
     31 H11          3.5890    -1.0520    -2.3240 ha         1 PNG       0.150500
     32 H12          1.1420    -1.3980    -2.2730 ha         1 PNG       0.142500
     33 HO2         -2.4250    -3.2620     1.0070 ho         1 PNG       0.513000
     34 HO3         -4.7510    -1.8960    -0.6430 ho         1 PNG       0.467000
     35 HO4         -4.7400     1.2560    -1.5070 ho         1 PNG       0.527000
     36 HO6         -0.4370     4.2500     1.1950 ho         1 PNG       0.507000
@<TRIPOS>BOND
     1     1     2 1   
     2     1    14 1   
     3     1    18 1   
     4     1    22 1   
     5     2     3 1   
     6     2    15 1   
     7     2    23 1   
     8     3     4 1   
     9     3    16 1   
    10     3    24 1   
    11     4     5 1   
    12     4    17 1   
    13     4    25 1   
    14     5     6 1   
    15     5    18 1   
    16     5    26 1   
    17     6    19 1   
    18     6    27 1   
    19     6    28 1   
    20     7     8 ar  
    21     7    12 ar  
    22     7    14 1   
    23     8     9 ar  
    24     8    29 1   
    25     9    10 ar  
    26     9    30 1   
    27    10    11 ar  
    28    10    13 1   
    29    11    12 ar  
    30    11    31 1   
    31    12    32 1   
    32    13    20 1   
    33    13    21 1   
    34    15    33 1   
    35    16    34 1   
    36    17    35 1   
    37    19    36 1   
@<TRIPOS>SUBSTRUCTURE
     1 PNG         1 TEMP              0 ****  ****    0 ROOT
