@<TRIPOS>MOLECULE
PNH
   16    15     1     0     0
SMALL
No Charge or Current Charge


@<TRIPOS>ATOM
      1 C1           2.6680    -0.2610    -0.2800 c3         1 PNH      -0.092100
      2 C3           0.2840    -0.6690     0.6010 c3         1 PNH      -0.184400
      3 C4          -1.1310    -0.0840     0.7170 c          1 PNH       0.570100
      4 O6          -1.4320     0.7010     1.6070 o          1 PNH      -0.521100
      5 C5          -2.1370    -0.5060    -0.3520 c3         1 PNH      -0.202100
      6 C2           1.2390     0.2980    -0.1380 c3         1 PNH      -0.065400
      7 H1           3.1080    -0.4540     0.7050 hc         1 PNH       0.032367
      8 H1A          2.6630    -1.1980    -0.8490 hc         1 PNH       0.032367
      9 H1B          3.3080     0.4570    -0.8070 hc         1 PNH       0.032367
     10 H3           0.6790    -0.8590     1.6060 hc         1 PNH       0.058200
     11 H3A          0.2440    -1.6000     0.0230 hc         1 PNH       0.058200
     12 H5          -2.2380    -1.5970    -0.3320 hc         1 PNH       0.059700
     13 H5A         -3.1080    -0.0090    -0.2390 hc         1 PNH       0.059700
     14 H5B         -1.7020    -0.3320    -1.3420 hc         1 PNH       0.059700
     15 H2           1.2810     1.2530     0.4020 hc         1 PNH       0.051200
     16 H2A          0.8400     0.5150    -1.1380 hc         1 PNH       0.051200
@<TRIPOS>BOND
     1     1     6 1   
     2     1     7 1   
     3     1     8 1   
     4     1     9 1   
     5     2     3 1   
     6     2     6 1   
     7     2    10 1   
     8     2    11 1   
     9     3     4 2   
    10     3     5 1   
    11     5    12 1   
    12     5    13 1   
    13     5    14 1   
    14     6    15 1   
    15     6    16 1   
@<TRIPOS>SUBSTRUCTURE
     1 PNH         1 TEMP              0 ****  ****    0 ROOT
