@<TRIPOS>MOLECULE
PNH
   16    15     1     0     0
SMALL
bcc


@<TRIPOS>ATOM
      1 C1           2.7430    -0.2620    -0.0960 c3         1 PNH      -0.092100
      2 C3           0.2430    -0.5040     0.0460 c3         1 PNH      -0.184400
      3 C4          -1.1200     0.1230     0.1730 c          1 PNH       0.570100
      4 O6          -1.2740     1.3070     0.3790 o          1 PNH      -0.521100
      5 C5          -2.2850    -0.8170     0.0130 c3         1 PNH      -0.202100
      6 C2           1.4130     0.4670     0.0320 c3         1 PNH      -0.065400
      7 H1           2.8950    -0.9570     0.7330 hc         1 PNH       0.032367
      8 H1A          2.7900    -0.8400    -1.0210 hc         1 PNH       0.032367
      9 H1B          3.5810     0.4360    -0.1000 hc         1 PNH       0.032367
     10 H3           0.3470    -1.2140     0.8750 hc         1 PNH       0.058200
     11 H3A          0.2470    -1.1310    -0.8540 hc         1 PNH       0.058200
     12 H5          -2.1100    -1.7570     0.5360 hc         1 PNH       0.059700
     13 H5A         -3.2130    -0.3690     0.3640 hc         1 PNH       0.059700
     14 H5B         -2.3980    -1.0640    -1.0460 hc         1 PNH       0.059700
     15 H2           1.4070     1.0650     0.9470 hc         1 PNH       0.051200
     16 H2A          1.2990     1.1710    -0.7960 hc         1 PNH       0.051200
@<TRIPOS>BOND
     1     1     6 1   
     2     1     7 1   
     3     1     8 1   
     4     1     9 1   
     5     2     3 1   
     6     2     6 1   
     7     2    10 1   
     8     2    11 1   
     9     3     4 2   
    10     3     5 1   
    11     5    12 1   
    12     5    13 1   
    13     5    14 1   
    14     6    15 1   
    15     6    16 1   
@<TRIPOS>SUBSTRUCTURE
     1 PNH         1 TEMP              0 ****  ****    0 ROOT
