@<TRIPOS>MOLECULE
PNJ
   37    38     1     0     0
SMALL
No Charge or Current Charge


@<TRIPOS>ATOM
      1 C1           1.1550     0.7420    -0.1620 c6         1 PNJ       0.392300
      2 C2           2.4640     1.5870     0.0450 c6         1 PNJ       0.147500
      3 C4           3.7370    -0.6470     0.1800 c6         1 PNJ       0.100300
      4 C5           2.3670    -1.3630    -0.0470 c6         1 PNJ       0.149300
      5 C6           2.2870    -2.7680     0.6380 c3         1 PNJ       0.169600
      6 C7          -1.2670     0.9720     0.2260 ca         1 PNJ       0.197100
      7 C8          -2.2980     1.6790     0.8610 ca         1 PNJ      -0.177500
      8 C9          -3.6390     1.2860     0.7120 ca         1 PNJ      -0.010000
      9 C10         -3.9660     0.1660    -0.0860 ca         1 PNJ      -0.222200
     10 C11         -2.9270    -0.5470    -0.7290 ca         1 PNJ      -0.010000
     11 C12         -1.5880    -0.1450    -0.5760 ca         1 PNJ      -0.177500
     12 N1          -5.3920    -0.2600    -0.2490 no         1 PNJ       0.702200
     13 O1           0.0240     1.4260     0.4130 os         1 PNJ      -0.331100
     14 O3           4.9290     1.4580    -0.2340 oh         1 PNJ      -0.660000
     15 O4           4.8470    -1.3980    -0.3660 oh         1 PNJ      -0.720000
     16 C3           3.6880     0.7660    -0.4780 c6         1 PNJ       0.170300
     17 O5           1.2990    -0.5400     0.4870 os         1 PNJ      -0.463000
     18 O6           1.0070    -3.4090     0.4730 oh         1 PNJ      -0.707000
     19 O7          -5.6310    -1.2460    -0.9590 o          1 PNJ      -0.406500
     20 N2           2.4230     2.9530    -0.5860 n8         1 PNJ      -1.000200
     21 O8          -6.2680     0.3930     0.3340 o          1 PNJ      -0.406500
     22 H8          -2.0550     2.5420     1.4750 ha         1 PNJ       0.143000
     23 H9          -4.4150     1.8570     1.2200 ha         1 PNJ       0.150500
     24 H11         -3.1470    -1.4140    -1.3500 ha         1 PNJ       0.150500
     25 H12         -0.8180    -0.7190    -1.0820 ha         1 PNJ       0.143000
     26 H1           0.9880     0.6010    -1.2410 h2         1 PNJ       0.056700
     27 H2           2.6010     1.7360     1.1270 h1         1 PNJ       0.056700
     28 H5           2.2020    -1.5030    -1.1260 h1         1 PNJ       0.065700
     29 H61C         3.0760    -3.4050     0.2150 h1         1 PNJ       0.029200
     30 H62C         2.5090    -2.6410     1.7070 h1         1 PNJ       0.029200
     31 H4           3.8730    -0.5120     1.2640 h1         1 PNJ       0.059700
     32 H6           1.0290    -4.2390     1.0050 ho         1 PNJ       0.510000
     33 HA           5.1200    -2.0660     0.3070 ho         1 PNJ       0.513000
     34 H3           3.5570     0.6240    -1.5620 h1         1 PNJ       0.059700
     35 HB           5.6230     0.7730    -0.3720 ho         1 PNJ       0.464000
     36 H21N         1.8460     3.5690    -0.0010 hn         1 PNJ       0.415500
     37 H22N         3.3670     3.3540    -0.5040 hn         1 PNJ       0.415500
@<TRIPOS>BOND
     1     1     2 1   
     2     1    13 1   
     3     1    17 1   
     4     1    26 1   
     5     2    16 1   
     6     2    20 1   
     7     2    27 1   
     8     3     4 1   
     9     3    15 1   
    10     3    16 1   
    11     3    31 1   
    12     4     5 1   
    13     4    17 1   
    14     4    28 1   
    15     5    18 1   
    16     5    29 1   
    17     5    30 1   
    18     6     7 ar  
    19     6    11 ar  
    20     6    13 1   
    21     7     8 ar  
    22     7    22 1   
    23     8     9 ar  
    24     8    23 1   
    25     9    10 ar  
    26     9    12 1   
    27    10    11 ar  
    28    10    24 1   
    29    11    25 1   
    30    12    19 1   
    31    12    21 1   
    32    14    16 1   
    33    14    35 1   
    34    15    33 1   
    35    16    34 1   
    36    18    32 1   
    37    20    36 1   
    38    20    37 1   
@<TRIPOS>SUBSTRUCTURE
     1 PNJ         1 TEMP              0 ****  ****    0 ROOT
