@<TRIPOS>MOLECULE
PNJ
   37    38     1     0     0
SMALL
bcc


@<TRIPOS>ATOM
      1 C1           1.1490     0.6030    -0.0050 c6         1 PNJ       0.345900
      2 C2           2.3740     1.4950     0.1590 c6         1 PNJ       0.147500
      3 C4           3.6890    -0.6550     0.1650 c6         1 PNJ       0.077100
      4 C5           2.3570    -1.3940     0.0020 c6         1 PNJ       0.126100
      5 C6           2.3620    -2.7600     0.6490 c3         1 PNJ       0.146400
      6 C7          -1.1870     0.8560     0.3490 ca         1 PNJ       0.197100
      7 C8          -2.1900     1.7150     0.8050 ca         1 PNJ      -0.195500
      8 C9          -3.5160     1.4290     0.5650 ca         1 PNJ      -0.028000
      9 C10         -3.8450     0.2750    -0.1380 ca         1 PNJ      -0.222200
     10 C11         -2.8590    -0.5900    -0.5890 ca         1 PNJ      -0.028000
     11 C12         -1.5280    -0.3080    -0.3410 ca         1 PNJ      -0.195500
     12 N1          -5.2340    -0.0280    -0.4000 no         1 PNJ       0.322200
     13 O1           0.0720     1.2340     0.6280 os         1 PNJ      -0.307900
     14 O3           4.7190     1.5160    -0.1770 oh         1 PNJ      -0.597800
     15 O4           4.7340    -1.3050    -0.5220 oh         1 PNJ      -0.597800
     16 C3           3.5680     0.7480    -0.4260 c6         1 PNJ       0.147100
     17 O5           1.3340    -0.6290     0.6150 os         1 PNJ      -0.416600
     18 O6           1.1400    -3.3970     0.3670 oh         1 PNJ      -0.584800
     19 O7          -5.4930    -1.0390    -1.0120 o          1 PNJ      -0.216500
     20 N2           2.1680     2.7380    -0.5560 n8         1 PNJ      -0.889800
     21 O8          -6.0740     0.7440     0.0040 o          1 PNJ      -0.216500
     22 H8          -1.9190     2.6140     1.3430 ha         1 PNJ       0.161000
     23 H9          -4.2780     2.1060     0.9200 ha         1 PNJ       0.168500
     24 H11         -3.1120    -1.4930    -1.1250 ha         1 PNJ       0.168500
     25 H12         -0.7810    -1.0160    -0.6700 ha         1 PNJ       0.161000
     26 H1           0.9320     0.4750    -1.0790 h2         1 PNJ       0.056700
     27 H2           2.5470     1.6250     1.2400 h1         1 PNJ       0.056700
     28 H5           2.1480    -1.5110    -1.0730 h1         1 PNJ       0.065700
     29 H61C         3.2130    -3.3250     0.2500 h1         1 PNJ       0.029200
     30 H62C         2.5290    -2.6440     1.7280 h1         1 PNJ       0.029200
     31 H4           3.9130    -0.5660     1.2370 h1         1 PNJ       0.059700
     32 H6           1.1480    -4.2570     0.7970 ho         1 PNJ       0.411000
     33 HA           5.1490    -1.9440     0.0630 ho         1 PNJ       0.414000
     34 H3           3.4000     0.6440    -1.5110 h1         1 PNJ       0.059700
     35 HB           5.4530     1.1220    -0.6590 ho         1 PNJ       0.425000
     36 H21N         1.4940     3.3110    -0.0660 hn         1 PNJ       0.360300
     37 H22N         3.0290     3.2700    -0.5590 hn         1 PNJ       0.360300
@<TRIPOS>BOND
     1     1     2 1   
     2     1    13 1   
     3     1    17 1   
     4     1    26 1   
     5     2    16 1   
     6     2    20 1   
     7     2    27 1   
     8     3     4 1   
     9     3    15 1   
    10     3    16 1   
    11     3    31 1   
    12     4     5 1   
    13     4    17 1   
    14     4    28 1   
    15     5    18 1   
    16     5    29 1   
    17     5    30 1   
    18     6     7 ar  
    19     6    11 ar  
    20     6    13 1   
    21     7     8 ar  
    22     7    22 1   
    23     8     9 ar  
    24     8    23 1   
    25     9    10 ar  
    26     9    12 1   
    27    10    11 ar  
    28    10    24 1   
    29    11    25 1   
    30    12    19 1   
    31    12    21 1   
    32    14    16 1   
    33    14    35 1   
    34    15    33 1   
    35    16    34 1   
    36    18    32 1   
    37    20    36 1   
    38    20    37 1   
@<TRIPOS>SUBSTRUCTURE
     1 PNJ         1 TEMP              0 ****  ****    0 ROOT
