@<TRIPOS>MOLECULE
PNK
   42    43     1     0     0
SMALL
No Charge or Current Charge


@<TRIPOS>ATOM
      1 C1           0.4810    -1.6870     1.2080 c3         1 PNK      -0.033300
      2 C2           1.1750    -2.2060     2.4910 c          1 PNK       0.731000
      3 C3          -4.8460     0.2930    -0.4620 ca         1 PNK      -0.096000
      4 C4           1.3240    -0.5390     0.5990 c5         1 PNK       0.343500
      5 C5           1.6750     1.0790    -1.1340 c5         1 PNK       0.034500
      6 C6           3.0340     0.2880    -1.2870 c5         1 PNK       0.084000
      7 C7          -5.1990     1.4440    -1.1880 ca         1 PNK      -0.122500
      8 C8          -4.4280     2.6120    -1.0740 ca         1 PNK      -0.135000
      9 C9           1.8740     2.4650    -0.3680 c          1 PNK       0.732000
     10 C10         -3.3020     2.6290    -0.2330 ca         1 PNK      -0.122500
     11 C11         -2.9490     1.4780     0.4930 ca         1 PNK      -0.096000
     12 C12          3.2230    -0.2270    -2.7370 c3         1 PNK      -0.061100
     13 N1           0.6770     0.0920    -0.5680 n7         1 PNK      -0.826400
     14 O1           1.9490     3.4900    -1.0360 o          1 PNK      -0.730000
     15 O2           1.8460     2.5150     0.8570 o          1 PNK      -0.730000
     16 O3           1.3830    -3.4080     2.5940 o          1 PNK      -0.721000
     17 O4           1.3810    -1.4120     3.4000 o          1 PNK      -0.721000
     18 O5          -1.9120    -2.1370    -0.3800 o          1 PNK      -0.622100
     19 C16         -3.7180     0.3030     0.3830 ca         1 PNK      -0.035300
     20 C15         -3.3330    -0.9430     1.1750 c3         1 PNK      -0.133100
     21 N2          -0.9290    -1.3150     1.5140 ns         1 PNK      -0.448900
     22 S1           2.8560    -1.2050    -0.1890 ss         1 PNK      -0.515000
     23 C13          4.3220     1.0480    -0.8690 c3         1 PNK      -0.061100
     24 H1           0.4650    -2.5150     0.4890 h1         1 PNK       0.045700
     25 H4           1.5800     0.1900     1.3820 h2         1 PNK       0.140700
     26 H5           1.3200     1.3700    -2.1310 h1         1 PNK       0.036700
     27 H8          -4.7010     3.5020    -1.6360 ha         1 PNK       0.089000
     28 H10         -2.7030     3.5320    -0.1450 ha         1 PNK       0.094000
     29 H11         -2.0740     1.5020     1.1390 ha         1 PNK       0.118500
     30 H12          3.3350     0.6070    -3.4410 hc         1 PNK       0.023700
     31 H12A         4.1140    -0.8610    -2.8270 hc         1 PNK       0.023700
     32 H12B         2.3610    -0.8220    -3.0640 hc         1 PNK       0.023700
     33 HN1          0.5240    -0.6550    -1.2480 hn         1 PNK       0.372000
     34 H15         -3.2480    -0.6740     2.2350 hc         1 PNK       0.059200
     35 H15A        -4.1060    -1.7110     1.0630 hc         1 PNK       0.059200
     36 HN2         -1.1130    -0.8090     2.3720 hn         1 PNK       0.316500
     37 H13          4.2970     1.3370     0.1880 hc         1 PNK       0.023700
     38 H13A         5.2130     0.4230    -1.0070 hc         1 PNK       0.023700
     39 H13B         4.4630     1.9560    -1.4670 hc         1 PNK       0.023700
     40 C14         -2.0040    -1.5220     0.6750 c          1 PNK       0.598100
     41 H3          -5.4500    -0.6070    -0.5590 ha         1 PNK       0.118500
     42 H7          -6.0700     1.4290    -1.8390 ha         1 PNK       0.094000
@<TRIPOS>BOND
     1     1     2 1   
     2     1     4 1   
     3     1    21 1   
     4     1    24 1   
     5     2    16 1   
     6     2    17 1   
     7     3     7 ar  
     8     3    19 ar  
     9     3    41 1   
    10     4    13 1   
    11     4    22 1   
    12     4    25 1   
    13     5     6 1   
    14     5     9 1   
    15     5    13 1   
    16     5    26 1   
    17     6    12 1   
    18     6    22 1   
    19     6    23 1   
    20     7     8 ar  
    21     7    42 1   
    22     8    10 ar  
    23     8    27 1   
    24     9    14 1   
    25     9    15 1   
    26    10    11 ar  
    27    10    28 1   
    28    11    19 ar  
    29    11    29 1   
    30    12    30 1   
    31    12    31 1   
    32    12    32 1   
    33    13    33 1   
    34    18    40 2   
    35    19    20 1   
    36    20    34 1   
    37    20    35 1   
    38    20    40 1   
    39    21    36 1   
    40    21    40 1   
    41    23    37 1   
    42    23    38 1   
    43    23    39 1   
@<TRIPOS>SUBSTRUCTURE
     1 PNK         1 TEMP              0 ****  ****    0 ROOT
