@<TRIPOS>MOLECULE
PNK
   42    43     1     0     0
SMALL
abcg2


@<TRIPOS>ATOM
      1 C1           0.2350    -1.0340     0.2140 c3         1 PNK      -0.033300
      2 C2           0.2210    -2.3780     0.9940 c          1 PNK       0.731000
      3 C3          -5.3650    -0.1540     0.4360 ca         1 PNK      -0.096000
      4 C4           1.5650    -0.3420     0.4710 c5         1 PNK       0.343500
      5 C5           3.0540     1.3320    -0.2990 c5         1 PNK       0.034500
      6 C6           3.8630     0.1040    -0.8320 c5         1 PNK       0.084000
      7 C7          -6.4710    -0.0100    -0.3900 ca         1 PNK      -0.122500
      8 C8          -6.5050     1.0010    -1.3430 ca         1 PNK      -0.135000
      9 C9           3.6330     1.9270     1.0030 c          1 PNK       0.732000
     10 C10         -5.4260     1.8660    -1.4600 ca         1 PNK      -0.122500
     11 C11         -4.3210     1.7200    -0.6310 ca         1 PNK      -0.096000
     12 C12          3.7650     0.0600    -2.3570 c3         1 PNK      -0.061100
     13 N1           1.6600     0.9380    -0.1750 n7         1 PNK      -0.826400
     14 O1           4.4850     2.8240     0.8470 o          1 PNK      -0.730000
     15 O2           3.2260     1.4760     2.0900 o          1 PNK      -0.730000
     16 O3           0.5500    -3.3860     0.3440 o          1 PNK      -0.721000
     17 O4          -0.0540    -2.3080     2.2040 o          1 PNK      -0.721000
     18 O5          -2.4940    -1.5550     0.1730 o          1 PNK      -0.622100
     19 C16         -4.2790     0.7100     0.3270 ca         1 PNK      -0.035300
     20 C15         -3.0670     0.5380     1.1980 c3         1 PNK      -0.133100
     21 N2          -0.8130    -0.1370     0.6470 ns         1 PNK      -0.448900
     22 S1           2.9890    -1.3600    -0.1430 ss         1 PNK      -0.515000
     23 C13          5.3270     0.0800    -0.4120 c3         1 PNK      -0.061100
     24 H1           0.1390    -1.2290    -0.8610 h1         1 PNK       0.045700
     25 H4           1.7050    -0.2100     1.5410 h2         1 PNK       0.140700
     26 H5           3.1090     2.1140    -1.0610 h1         1 PNK       0.036700
     27 H8          -7.3680     1.1150    -1.9850 ha         1 PNK       0.089000
     28 H10         -5.4420     2.6590    -2.1970 ha         1 PNK       0.094000
     29 H11         -3.4850     2.4020    -0.7290 ha         1 PNK       0.118500
     30 H12          4.3200     0.8920    -2.7980 hc         1 PNK       0.023700
     31 H12A         4.1790    -0.8670    -2.7560 hc         1 PNK       0.023700
     32 H12B         2.7290     0.1290    -2.6930 hc         1 PNK       0.023700
     33 HN1          1.2660     0.8620    -1.1080 hn         1 PNK       0.372000
     34 H15         -2.5720     1.4970     1.3580 hc         1 PNK       0.059200
     35 H15A        -3.3630     0.1710     2.1860 hc         1 PNK       0.059200
     36 HN2         -0.5540     0.7740     0.9910 hn         1 PNK       0.316500
     37 H13          5.4370     0.0300     0.6700 hc         1 PNK       0.023700
     38 H13A         5.8350    -0.7860    -0.8390 hc         1 PNK       0.023700
     39 H13B         5.8400     0.9750    -0.7670 hc         1 PNK       0.023700
     40 C14         -2.1030    -0.4860     0.6200 c          1 PNK       0.598100
     41 H3          -5.3510    -0.9410     1.1790 ha         1 PNK       0.118500
     42 H7          -7.3110    -0.6860    -0.2870 ha         1 PNK       0.094000
@<TRIPOS>BOND
     1     1     2 1   
     2     1     4 1   
     3     1    21 1   
     4     1    24 1   
     5     2    16 1   
     6     2    17 1   
     7     3     7 ar  
     8     3    19 ar  
     9     3    41 1   
    10     4    13 1   
    11     4    22 1   
    12     4    25 1   
    13     5     6 1   
    14     5     9 1   
    15     5    13 1   
    16     5    26 1   
    17     6    12 1   
    18     6    22 1   
    19     6    23 1   
    20     7     8 ar  
    21     7    42 1   
    22     8    10 ar  
    23     8    27 1   
    24     9    14 1   
    25     9    15 1   
    26    10    11 ar  
    27    10    28 1   
    28    11    19 ar  
    29    11    29 1   
    30    12    30 1   
    31    12    31 1   
    32    12    32 1   
    33    13    33 1   
    34    18    40 2   
    35    19    20 1   
    36    20    34 1   
    37    20    35 1   
    38    20    40 1   
    39    21    36 1   
    40    21    40 1   
    41    23    37 1   
    42    23    38 1   
    43    23    39 1   
@<TRIPOS>SUBSTRUCTURE
     1 PNK         1 TEMP              0 ****  ****    0 ROOT
