@<TRIPOS>MOLECULE
PNL
   10     9     1     0     0
SMALL
No Charge or Current Charge


@<TRIPOS>ATOM
      1 C1          -0.1420    -0.4040    -0.7210 c          1 PNL       0.573900
      2 O1          -0.5500     0.4560    -1.4940 o          1 PNL      -0.514100
      3 C2           0.6140    -0.0780     0.5710 c3         1 PNL      -0.203400
      4 C3          -0.3520     0.2480     1.7320 c3         1 PNL      -0.083100
      5 H1          -0.3200    -1.4850    -0.9150 h4         1 PNL      -0.021800
      6 H21          1.2720     0.7820     0.4020 hc         1 PNL       0.067200
      7 H22          1.1940    -0.9600     0.8650 hc         1 PNL       0.067200
      8 H31          0.2100     0.4640     2.6490 hc         1 PNL       0.039033
      9 H32         -0.9660     1.1250     1.4920 hc         1 PNL       0.039033
     10 H33         -1.0210    -0.5980     1.9320 hc         1 PNL       0.039033
@<TRIPOS>BOND
     1     1     2 2   
     2     1     3 1   
     3     1     5 1   
     4     3     4 1   
     5     3     6 1   
     6     3     7 1   
     7     4     8 1   
     8     4     9 1   
     9     4    10 1   
@<TRIPOS>SUBSTRUCTURE
     1 PNL         1 TEMP              0 ****  ****    0 ROOT
