@<TRIPOS>MOLECULE
PNL
   10     9     1     0     0
SMALL
abcg2


@<TRIPOS>ATOM
      1 C1          -0.1460    -0.3530    -0.6970 c          1 PNL       0.573900
      2 O1          -0.0300     0.1850    -1.7700 o          1 PNL      -0.514100
      3 C2           0.5960     0.0170     0.5480 c3         1 PNL      -0.203400
      4 C3          -0.3500     0.1680     1.7360 c3         1 PNL      -0.083100
      5 H1          -0.8440    -1.2030    -0.5680 h4         1 PNL      -0.021800
      6 H21          1.1840     0.9200     0.3810 hc         1 PNL       0.067200
      7 H22          1.2970    -0.8010     0.7490 hc         1 PNL       0.067200
      8 H31          0.2120     0.3530     2.6500 hc         1 PNL       0.039033
      9 H32         -1.0390     1.0010     1.5930 hc         1 PNL       0.039033
     10 H33         -0.9420    -0.7350     1.8900 hc         1 PNL       0.039033
@<TRIPOS>BOND
     1     1     2 2   
     2     1     3 1   
     3     1     5 1   
     4     3     4 1   
     5     3     6 1   
     6     3     7 1   
     7     4     8 1   
     8     4     9 1   
     9     4    10 1   
@<TRIPOS>SUBSTRUCTURE
     1 PNL         1 TEMP              0 ****  ****    0 ROOT
