@<TRIPOS>MOLECULE
PNM
   42    43     1     0     0
SMALL
No Charge or Current Charge


@<TRIPOS>ATOM
      1 O8          -2.6170    -0.6650    -1.1300 o          1 PNM      -0.520100
      2 C7          -2.1350    -1.2660    -0.1730 c          1 PNM       0.561900
      3 N4          -0.4550     0.7680     1.6110 n7         1 PNM      -0.884400
      4 C3          -0.0650     1.1980     3.0140 c5         1 PNM       0.023500
      5 C11         -1.1870     1.1120     4.1380 c          1 PNM       0.706000
      6 O13         -1.1890     1.9560     5.0240 o          1 PNM      -0.719000
      7 O12         -2.1080     0.3140     4.0210 o          1 PNM      -0.719000
      8 C2           1.2190     0.3620     3.4090 c5         1 PNM       0.152000
      9 C10          1.2160    -0.2850     4.8210 c3         1 PNM      -0.068600
     10 C9           2.5090     1.2070     3.2610 c3         1 PNM      -0.068600
     11 S1           1.3140    -1.0140     2.1580 ss         1 PNM      -0.494000
     12 C5          -0.4150    -0.7090     1.5970 c5         1 PNM       0.334500
     13 C6          -0.6340    -1.2940     0.1820 c3         1 PNM      -0.006300
     14 N14          0.1890    -0.6270    -0.8600 ns         1 PNM      -0.461900
     15 C15          0.7390    -1.2500    -1.9550 c          1 PNM       0.610100
     16 O16          0.5360    -2.4310    -2.2030 o          1 PNM      -0.625100
     17 C17          1.6080    -0.3540    -2.8450 c3         1 PNM      -0.114100
     18 C18          0.8440     0.0730    -4.0940 ca         1 PNM      -0.069300
     19 C19         -0.0220     1.1830    -4.0510 ca         1 PNM      -0.090500
     20 C20         -0.7300     1.5750    -5.2000 ca         1 PNM      -0.114500
     21 C21         -0.5760     0.8610    -6.4000 ca         1 PNM      -0.116000
     22 C22          0.2850    -0.2480    -6.4490 ca         1 PNM      -0.114500
     23 C23          0.9930    -0.6410    -5.3000 ca         1 PNM      -0.090500
     24 HC7         -2.7870    -1.8490     0.5140 h4         1 PNM      -0.013800
     25 H4          -1.4110     1.0880     1.4130 hn         1 PNM       0.428000
     26 HC3          0.1960     2.2650     2.9830 h1         1 PNM       0.065700
     27 H101         2.1270    -0.8720     4.9880 hc         1 PNM       0.035033
     28 H102         1.1680     0.4740     5.6110 hc         1 PNM       0.035033
     29 H103         0.3680    -0.9670     4.9510 hc         1 PNM       0.035033
     30 HC91         3.4080     0.6030     3.4370 hc         1 PNM       0.035033
     31 HC92         2.5890     1.6330     2.2540 hc         1 PNM       0.035033
     32 HC93         2.5200     2.0390     3.9750 hc         1 PNM       0.035033
     33 HC5         -1.1140    -1.1620     2.3150 h2         1 PNM       0.090700
     34 HC6         -0.3590    -2.3550     0.2280 h1         1 PNM       0.092700
     35 H14          0.4300     0.3460    -0.7070 hn         1 PNM       0.341500
     36 H171         1.9080     0.5420    -2.2880 hc         1 PNM       0.062700
     37 H172         2.5050    -0.9140    -3.1340 hc         1 PNM       0.062700
     38 H19         -0.1500     1.7420    -3.1260 ha         1 PNM       0.116000
     39 H20         -1.3980     2.4330    -5.1600 ha         1 PNM       0.105500
     40 H21         -1.1240     1.1640    -7.2890 ha         1 PNM       0.102000
     41 H22          0.4040    -0.8030    -7.3770 ha         1 PNM       0.105500
     42 H23          1.6550    -1.5030    -5.3470 ha         1 PNM       0.116000
@<TRIPOS>BOND
     1     1     2 2   
     2     2    13 1   
     3     2    24 1   
     4     3     4 1   
     5     3    12 1   
     6     3    25 1   
     7     4     5 1   
     8     4     8 1   
     9     4    26 1   
    10     5     6 1   
    11     5     7 1   
    12     8     9 1   
    13     8    10 1   
    14     8    11 1   
    15     9    27 1   
    16     9    28 1   
    17     9    29 1   
    18    10    30 1   
    19    10    31 1   
    20    10    32 1   
    21    11    12 1   
    22    12    13 1   
    23    12    33 1   
    24    13    14 1   
    25    13    34 1   
    26    14    15 1   
    27    14    35 1   
    28    15    16 2   
    29    15    17 1   
    30    17    18 1   
    31    17    36 1   
    32    17    37 1   
    33    18    19 ar  
    34    18    23 ar  
    35    19    20 ar  
    36    19    38 1   
    37    20    21 ar  
    38    20    39 1   
    39    21    22 ar  
    40    21    40 1   
    41    22    23 ar  
    42    22    41 1   
    43    23    42 1   
@<TRIPOS>SUBSTRUCTURE
     1 PNM         1 TEMP              0 ****  ****    0 ROOT
