@<TRIPOS>MOLECULE
PNM
   42    43     1     0     0
SMALL
abcg2


@<TRIPOS>ATOM
      1 O8          -2.4790    -0.5560    -1.3280 o          1 PNM      -0.520100
      2 C7          -2.2260    -1.2120    -0.3540 c          1 PNM       0.561900
      3 N4          -0.8200     0.5210     1.7570 n7         1 PNM      -0.884400
      4 C3          -0.2130     1.0080     2.9880 c5         1 PNM       0.023500
      5 C11         -1.1230     0.9160     4.2380 c          1 PNM       0.706000
      6 O13         -0.8200     1.6730     5.1800 o          1 PNM      -0.719000
      7 O12         -2.0800     0.1200     4.1970 o          1 PNM      -0.719000
      8 C2           1.1210     0.2390     3.1110 c5         1 PNM       0.152000
      9 C10          1.6950     0.1500     4.5180 c3         1 PNM      -0.068600
     10 C9           2.1690     0.8420     2.1790 c3         1 PNM      -0.068600
     11 S1           0.6770    -1.4570     2.5540 ss         1 PNM      -0.494000
     12 C5          -0.8340    -0.9250     1.6890 c5         1 PNM       0.334500
     13 C6          -0.8360    -1.3900     0.2240 c3         1 PNM      -0.006300
     14 N14          0.1510    -0.6870    -0.5290 ns         1 PNM      -0.461900
     15 C15          0.6630    -1.1380    -1.6830 c          1 PNM       0.610100
     16 O16          0.4160    -2.2420    -2.1420 o          1 PNM      -0.625100
     17 C17          1.5800    -0.1650    -2.4040 c3         1 PNM      -0.114100
     18 C18          0.9640     0.2300    -3.7180 ca         1 PNM      -0.069300
     19 C19          0.0920     1.3150    -3.7860 ca         1 PNM      -0.090500
     20 C20         -0.5140     1.6620    -4.9850 ca         1 PNM      -0.114500
     21 C21         -0.2590     0.9240    -6.1340 ca         1 PNM      -0.116000
     22 C22          0.6070    -0.1600    -6.0750 ca         1 PNM      -0.114500
     23 C23          1.2110    -0.5060    -4.8730 ca         1 PNM      -0.090500
     24 HC7         -3.0140    -1.7520     0.2020 h4         1 PNM      -0.013800
     25 H4          -1.7680     0.8740     1.6770 hn         1 PNM       0.428000
     26 HC3          0.0400     2.0660     2.8440 h1         1 PNM       0.065700
     27 H101         2.6370    -0.4020     4.4990 hc         1 PNM       0.035033
     28 H102         1.9010     1.1460     4.9080 hc         1 PNM       0.035033
     29 H103         1.0240    -0.3560     5.2100 hc         1 PNM       0.035033
     30 HC91         3.0450     0.1980     2.1000 hc         1 PNM       0.035033
     31 HC92         1.7780     1.0000     1.1750 hc         1 PNM       0.035033
     32 HC93         2.4980     1.8110     2.5640 hc         1 PNM       0.035033
     33 HC5         -1.6880    -1.3800     2.1980 h2         1 PNM       0.090700
     34 HC6         -0.6420    -2.4690     0.2110 h1         1 PNM       0.092700
     35 H14          0.3060     0.2670    -0.2380 hn         1 PNM       0.341500
     36 H171         1.7870     0.7210    -1.8000 hc         1 PNM       0.062700
     37 H172         2.5360    -0.6670    -2.5670 hc         1 PNM       0.062700
     38 H19         -0.1120     1.8950    -2.8940 ha         1 PNM       0.116000
     39 H20         -1.1860     2.5090    -5.0230 ha         1 PNM       0.105500
     40 H21         -0.7300     1.1930    -7.0710 ha         1 PNM       0.102000
     41 H22          0.8120    -0.7400    -6.9650 ha         1 PNM       0.105500
     42 H23          1.8890    -1.3490    -4.8370 ha         1 PNM       0.116000
@<TRIPOS>BOND
     1     1     2 2   
     2     2    13 1   
     3     2    24 1   
     4     3     4 1   
     5     3    12 1   
     6     3    25 1   
     7     4     5 1   
     8     4     8 1   
     9     4    26 1   
    10     5     6 1   
    11     5     7 1   
    12     8     9 1   
    13     8    10 1   
    14     8    11 1   
    15     9    27 1   
    16     9    28 1   
    17     9    29 1   
    18    10    30 1   
    19    10    31 1   
    20    10    32 1   
    21    11    12 1   
    22    12    13 1   
    23    12    33 1   
    24    13    14 1   
    25    13    34 1   
    26    14    15 1   
    27    14    35 1   
    28    15    16 2   
    29    15    17 1   
    30    17    18 1   
    31    17    36 1   
    32    17    37 1   
    33    18    19 ar  
    34    18    23 ar  
    35    19    20 ar  
    36    19    38 1   
    37    20    21 ar  
    38    20    39 1   
    39    21    22 ar  
    40    21    40 1   
    41    22    23 ar  
    42    22    41 1   
    43    23    42 1   
@<TRIPOS>SUBSTRUCTURE
     1 PNM         1 TEMP              0 ****  ****    0 ROOT
