@<TRIPOS>MOLECULE
PNN
   40    42     1     0     0
SMALL
No Charge or Current Charge


@<TRIPOS>ATOM
      1 O8          -2.4090     1.1960     0.8490 o          1 PNN      -0.506000
      2 C7          -1.4880     0.3970     0.9560 c          1 PNN       0.534000
      3 N4          -0.8020    -0.1330     2.0520 nj         1 PNN      -0.304800
      4 C3          -0.5400     0.4720     3.3690 c5         1 PNN      -0.045300
      5 C11         -1.1960    -0.2720     4.5720 c          1 PNN       0.734000
      6 O13         -1.4730     0.3740     5.5720 o          1 PNN      -0.703500
      7 O12         -1.5110    -1.4500     4.4610 o          1 PNN      -0.703500
      8 C2           1.0240     0.5390     3.5250 c5         1 PNN       0.163000
      9 C10          1.6790    -0.6950     4.2050 c3         1 PNN      -0.077100
     10 C9           1.5020     1.8230     4.2420 c3         1 PNN      -0.077100
     11 S1           1.6080     0.5950     1.7590 ss         1 PNN      -0.595000
     12 C5           0.3200    -0.6320     1.2470 cy         1 PNN       0.200700
     13 C6          -0.5670    -0.3950    -0.0280 cy         1 PNN      -0.001300
     14 N14         -0.0040     0.2750    -1.1900 ns         1 PNN      -0.475900
     15 C15          0.8570    -0.3290    -2.0790 c          1 PNN       0.607100
     16 O16          1.1770    -1.5060    -1.9770 o          1 PNN      -0.595100
     17 C17          1.3680     0.5710    -3.2090 c3         1 PNN      -0.117100
     18 C18          0.6110     0.2950    -4.5040 ca         1 PNN      -0.062300
     19 C19         -0.5690     1.0030    -4.8030 ca         1 PNN      -0.091500
     20 C20         -1.2690     0.7440    -5.9940 ca         1 PNN      -0.113500
     21 C21         -0.7930    -0.2250    -6.8940 ca         1 PNN      -0.113000
     22 C22          0.3820    -0.9350    -6.6000 ca         1 PNN      -0.113500
     23 C23          1.0830    -0.6770    -5.4090 ca         1 PNN      -0.091500
     24 HC3         -0.9620     1.4840     3.3440 h1         1 PNN       0.059700
     25 H101         2.7720    -0.6500     4.1310 hc         1 PNN       0.044700
     26 H102         1.4270    -0.7490     5.2700 hc         1 PNN       0.044700
     27 H103         1.3580    -1.6340     3.7400 hc         1 PNN       0.044700
     28 HC91         2.5970     1.8920     4.2490 hc         1 PNN       0.044700
     29 HC92         1.1180     2.7210     3.7450 hc         1 PNN       0.044700
     30 HC93         1.1590     1.8470     5.2830 hc         1 PNN       0.044700
     31 HC5          0.6390    -1.6590     1.4580 h2         1 PNN       0.107700
     32 HC6         -1.0650    -1.3100    -0.3630 h1         1 PNN       0.112700
     33 H14         -0.2070     1.2550    -1.3570 hn         1 PNN       0.326500
     34 H171         1.2330     1.6240    -2.9340 hc         1 PNN       0.065200
     35 H172         2.4360     0.3730    -3.3580 hc         1 PNN       0.065200
     36 H19         -0.9470     1.7550    -4.1130 ha         1 PNN       0.114000
     37 H20         -2.1790     1.2950    -6.2200 ha         1 PNN       0.107000
     38 H21         -1.3350    -0.4250    -7.8150 ha         1 PNN       0.104000
     39 H22          0.7510    -1.6870    -7.2950 ha         1 PNN       0.107000
     40 H23          1.9900    -1.2350    -5.1880 ha         1 PNN       0.114000
@<TRIPOS>BOND
     1     1     2 2   
     2     2     3 1   
     3     2    13 1   
     4     3     4 1   
     5     3    12 1   
     6     4     5 1   
     7     4     8 1   
     8     4    24 1   
     9     5     6 1   
    10     5     7 1   
    11     8     9 1   
    12     8    10 1   
    13     8    11 1   
    14     9    25 1   
    15     9    26 1   
    16     9    27 1   
    17    10    28 1   
    18    10    29 1   
    19    10    30 1   
    20    11    12 1   
    21    12    13 1   
    22    12    31 1   
    23    13    14 1   
    24    13    32 1   
    25    14    15 1   
    26    14    33 1   
    27    15    16 2   
    28    15    17 1   
    29    17    18 1   
    30    17    34 1   
    31    17    35 1   
    32    18    19 ar  
    33    18    23 ar  
    34    19    20 ar  
    35    19    36 1   
    36    20    21 ar  
    37    20    37 1   
    38    21    22 ar  
    39    21    38 1   
    40    22    23 ar  
    41    22    39 1   
    42    23    40 1   
@<TRIPOS>SUBSTRUCTURE
     1 PNN         1 TEMP              0 ****  ****    0 ROOT
