@<TRIPOS>MOLECULE
PNN
   40    42     1     0     0
SMALL
bcc


@<TRIPOS>ATOM
      1 O8          -2.3960     0.8240     1.0130 o          1 PNN      -0.581500
      2 C7          -1.4500     0.0900     1.1290 c          1 PNN       0.676500
      3 N4          -0.7560    -0.3430     2.2210 nj         1 PNN      -0.371800
      4 C3          -0.4580     0.4390     3.4060 c5         1 PNN      -0.045300
      5 C11         -1.0850    -0.1040     4.7110 c          1 PNN       0.944600
      6 O13         -1.0540     0.6930     5.6690 o          1 PNN      -0.808800
      7 O12         -1.5450    -1.2550     4.6890 o          1 PNN      -0.808800
      8 C2           1.0980     0.5220     3.4900 c5         1 PNN       0.115100
      9 C10          1.7090    -0.6110     4.3090 c3         1 PNN      -0.077100
     10 C9           1.5550     1.8730     4.0180 c3         1 PNN      -0.077100
     11 S1           1.6730     0.3510     1.7340 ss         1 PNN      -0.499200
     12 C5           0.3560    -0.8520     1.4320 cy         1 PNN       0.152800
     13 C6          -0.5030    -0.6350     0.1620 cy         1 PNN      -0.001300
     14 N14          0.0100     0.1300    -0.9190 ns         1 PNN      -0.542900
     15 C15          0.2120    -0.3730    -2.1590 c          1 PNN       0.674100
     16 O16         -0.0740    -1.5140    -2.4720 o          1 PNN      -0.595100
     17 C17          0.8590     0.6020    -3.1270 c3         1 PNN      -0.117100
     18 C18          0.4230     0.3610    -4.5430 ca         1 PNN      -0.062300
     19 C19         -0.6930     1.0170    -5.0540 ca         1 PNN      -0.109500
     20 C20         -1.1180     0.7840    -6.3550 ca         1 PNN      -0.131500
     21 C21         -0.4290    -0.1120    -7.1630 ca         1 PNN      -0.131000
     22 C22          0.6860    -0.7700    -6.6610 ca         1 PNN      -0.131500
     23 C23          1.1070    -0.5350    -5.3580 ca         1 PNN      -0.109500
     24 HC3         -0.8410     1.4520     3.2370 h1         1 PNN       0.059700
     25 H101         2.7960    -0.5860     4.2310 hc         1 PNN       0.044700
     26 H102         1.4510    -0.5010     5.3640 hc         1 PNN       0.044700
     27 H103         1.3690    -1.5940     3.9820 hc         1 PNN       0.044700
     28 HC91         2.6430     1.9400     4.0440 hc         1 PNN       0.044700
     29 HC92         1.1740     2.6890     3.4040 hc         1 PNN       0.044700
     30 HC93         1.1830     2.0090     5.0330 hc         1 PNN       0.044700
     31 HC5          0.6650    -1.8740     1.6500 h2         1 PNN       0.107700
     32 HC6         -0.9150    -1.5720    -0.2140 h1         1 PNN       0.112700
     33 H14          0.2930     1.0790    -0.7330 hn         1 PNN       0.326500
     34 H171         0.6530     1.6310    -2.8290 hc         1 PNN       0.065200
     35 H172         1.9410     0.4650    -3.0330 hc         1 PNN       0.065200
     36 H19         -1.2330     1.7180    -4.4290 ha         1 PNN       0.132000
     37 H20         -1.9870     1.3040    -6.7390 ha         1 PNN       0.125000
     38 H21         -0.7560    -0.2920    -8.1790 ha         1 PNN       0.122000
     39 H22          1.2300    -1.4680    -7.2840 ha         1 PNN       0.125000
     40 H23          1.9820    -1.0480    -4.9780 ha         1 PNN       0.132000
@<TRIPOS>BOND
     1     1     2 2   
     2     2     3 1   
     3     2    13 1   
     4     3     4 1   
     5     3    12 1   
     6     4     5 1   
     7     4     8 1   
     8     4    24 1   
     9     5     6 1   
    10     5     7 1   
    11     8     9 1   
    12     8    10 1   
    13     8    11 1   
    14     9    25 1   
    15     9    26 1   
    16     9    27 1   
    17    10    28 1   
    18    10    29 1   
    19    10    30 1   
    20    11    12 1   
    21    12    13 1   
    22    12    31 1   
    23    13    14 1   
    24    13    32 1   
    25    14    15 1   
    26    14    33 1   
    27    15    16 2   
    28    15    17 1   
    29    17    18 1   
    30    17    34 1   
    31    17    35 1   
    32    18    19 ar  
    33    18    23 ar  
    34    19    20 ar  
    35    19    36 1   
    36    20    21 ar  
    37    20    37 1   
    38    21    22 ar  
    39    21    38 1   
    40    22    23 ar  
    41    22    39 1   
    42    23    40 1   
@<TRIPOS>SUBSTRUCTURE
     1 PNN         1 TEMP              0 ****  ****    0 ROOT
