@<TRIPOS>MOLECULE
PNO
   10     9     1     0     0
SMALL
No Charge or Current Charge


@<TRIPOS>ATOM
      1 N1          -1.1010    -0.7660    -0.8160 n8         1 PNO      -1.094300
      2 P1           0.0780    -0.0530    -0.0310 p5         1 PNO       1.334300
      3 O1           1.2650    -0.7870    -0.5220 o          1 PNO      -0.842000
      4 O2          -0.0780     1.3570    -0.4530 o          1 PNO      -0.842000
      5 C1          -0.3640    -0.3860     1.7020 c3         1 PNO      -0.445100
      6 HN1         -0.4760    -1.3020    -1.4130 hn         1 PNO       0.398000
      7 HN2         -1.3270     0.0570    -1.3690 hn         1 PNO       0.398000
      8 H1           0.3870     0.0630     2.3610 hc         1 PNO       0.031367
      9 H2          -1.3440     0.0470     1.9300 hc         1 PNO       0.031367
     10 H3          -0.3960    -1.4660     1.8810 hc         1 PNO       0.031367
@<TRIPOS>BOND
     1     1     2 1   
     2     1     6 1   
     3     1     7 1   
     4     2     3 1   
     5     2     4 1   
     6     2     5 1   
     7     5     8 1   
     8     5     9 1   
     9     5    10 1   
@<TRIPOS>SUBSTRUCTURE
     1 PNO         1 TEMP              0 ****  ****    0 ROOT
