@<TRIPOS>MOLECULE
PNO
   10     9     1     0     0
SMALL
bcc


@<TRIPOS>ATOM
      1 N1          -1.1350    -0.6560    -0.9340 n8         1 PNO      -0.983900
      2 P1           0.1380     0.0790    -0.0400 p5         1 PNO       1.176500
      3 O1           1.4780    -0.5480    -0.3630 o          1 PNO      -0.842000
      4 O2          -0.0320     1.5740    -0.1990 o          1 PNO      -0.842000
      5 C1          -0.3090    -0.4040     1.6660 c3         1 PNO      -0.287300
      6 HN1         -0.9590    -1.6210    -1.1780 hn         1 PNO       0.342800
      7 HN2         -1.3460    -0.1510    -1.7850 hn         1 PNO       0.342800
      8 H1           0.4300    -0.0130     2.3680 hc         1 PNO       0.031367
      9 H2          -1.2840    -0.0090     1.9510 hc         1 PNO       0.031367
     10 H3          -0.3360    -1.4880     1.7850 hc         1 PNO       0.031367
@<TRIPOS>BOND
     1     1     2 1   
     2     1     6 1   
     3     1     7 1   
     4     2     3 1   
     5     2     4 1   
     6     2     5 1   
     7     5     8 1   
     8     5     9 1   
     9     5    10 1   
@<TRIPOS>SUBSTRUCTURE
     1 PNO         1 TEMP              0 ****  ****    0 ROOT
