@<TRIPOS>MOLECULE
PNP
   21    21     1     0     0
SMALL
No Charge or Current Charge


@<TRIPOS>ATOM
      1 C1          -0.5590     0.2510     0.5720 ca         1 PNP       0.274100
      2 C2           0.7560    -0.0240     0.1430 ca         1 PNP      -0.172500
      3 C3           1.0040    -0.4030    -1.1880 ca         1 PNP      -0.030500
      4 C4          -0.0620    -0.5160    -2.1110 ca         1 PNP      -0.242200
      5 C5          -1.3790    -0.2450    -1.6740 ca         1 PNP      -0.030500
      6 C6          -1.6160     0.1330    -0.3420 ca         1 PNP      -0.172500
      7 CM           0.5330    -0.7470     3.5990 c3         1 PNP      -0.457100
      8 N            0.2000    -0.9200    -3.5300 no         1 PNP       0.706200
      9 O1N         -0.7640    -1.0070    -4.3020 o          1 PNP      -0.437000
     10 O2N          1.3690    -1.1490    -3.8680 o          1 PNP      -0.437000
     11 P            0.0930     0.9590     3.1000 p5         1 PNP       1.388400
     12 O1P         -0.8790     0.6160     1.8560 os         1 PNP      -0.471500
     13 O2P         -0.6510     1.6090     4.2220 o          1 PNP      -0.803500
     14 O3P          1.3240     1.7100     2.7080 o          1 PNP      -0.803500
     15 H2           1.5990     0.0450     0.8220 ha         1 PNP       0.142000
     16 H3           2.0290    -0.6090    -1.4930 ha         1 PNP       0.132000
     17 H5          -2.2230    -0.3250    -2.3580 ha         1 PNP       0.132000
     18 H6          -2.6310     0.3380    -0.0120 ha         1 PNP       0.142000
     19 HM1          1.1470    -0.7110     4.5050 hc         1 PNP       0.047033
     20 HM2         -0.3820    -1.3110     3.8040 hc         1 PNP       0.047033
     21 HM3          1.0950    -1.2450     2.8030 hc         1 PNP       0.047033
@<TRIPOS>BOND
     1     1     2 ar  
     2     1     6 ar  
     3     1    12 1   
     4     2     3 ar  
     5     2    15 1   
     6     3     4 ar  
     7     3    16 1   
     8     4     5 ar  
     9     4     8 1   
    10     5     6 ar  
    11     5    17 1   
    12     6    18 1   
    13     7    11 1   
    14     7    19 1   
    15     7    20 1   
    16     7    21 1   
    17     8     9 1   
    18     8    10 1   
    19    11    12 1   
    20    11    13 1   
    21    11    14 1   
@<TRIPOS>SUBSTRUCTURE
     1 PNP         1 TEMP              0 ****  ****    0 ROOT
