@<TRIPOS>MOLECULE
PNP
   21    21     1     0     0
SMALL
bcc


@<TRIPOS>ATOM
      1 C1          -0.0100    -0.5750     0.4740 ca         1 PNP       0.274100
      2 C2           1.2030    -0.5020    -0.2120 ca         1 PNP      -0.190500
      3 C3           1.2210    -0.3260    -1.5810 ca         1 PNP      -0.048500
      4 C4           0.0170    -0.2090    -2.2660 ca         1 PNP      -0.242200
      5 C5          -1.2000    -0.2690    -1.5980 ca         1 PNP      -0.048500
      6 C6          -1.2100    -0.4440    -0.2290 ca         1 PNP      -0.190500
      7 CM          -0.0640    -0.3770     4.3930 c3         1 PNP      -0.299300
      8 N            0.0320    -0.0240    -3.7010 no         1 PNP       0.326200
      9 O1N         -1.0280     0.0720    -4.2770 o          1 PNP      -0.247000
     10 O2N          1.1040     0.0280    -4.2610 o          1 PNP      -0.247000
     11 P            0.0350     0.5580     2.8440 p5         1 PNP       1.230600
     12 O1P         -0.0270    -0.7920     1.7980 os         1 PNP      -0.471500
     13 O2P         -1.2120     1.3570     2.6070 o          1 PNP      -0.803500
     14 O3P          1.3850     1.1920     2.6720 o          1 PNP      -0.803500
     15 H2           2.1320    -0.6010     0.3330 ha         1 PNP       0.160000
     16 H3           2.1660    -0.2780    -2.1030 ha         1 PNP       0.150000
     17 H5          -2.1350    -0.1750    -2.1320 ha         1 PNP       0.150000
     18 H6          -2.1500    -0.4980     0.3030 ha         1 PNP       0.160000
     19 HM1         -0.0380     0.3210     5.2290 hc         1 PNP       0.047033
     20 HM2         -0.9920    -0.9440     4.4590 hc         1 PNP       0.047033
     21 HM3          0.7740    -1.0640     4.5040 hc         1 PNP       0.047033
@<TRIPOS>BOND
     1     1     2 ar  
     2     1     6 ar  
     3     1    12 1   
     4     2     3 ar  
     5     2    15 1   
     6     3     4 ar  
     7     3    16 1   
     8     4     5 ar  
     9     4     8 1   
    10     5     6 ar  
    11     5    17 1   
    12     6    18 1   
    13     7    11 1   
    14     7    19 1   
    15     7    20 1   
    16     7    21 1   
    17     8     9 1   
    18     8    10 1   
    19    11    12 1   
    20    11    13 1   
    21    11    14 1   
@<TRIPOS>SUBSTRUCTURE
     1 PNP         1 TEMP              0 ****  ****    0 ROOT
