@<TRIPOS>MOLECULE
PNR
   62    62     1     0     0
SMALL
abcg2


@<TRIPOS>ATOM
      1 O2          10.9830     1.0380     0.8120 o          1 PNR      -0.397500
      2 N1          10.5600     0.2250     0.0240 no         1 PNR       0.696200
      3 O1          11.2380    -0.3180    -0.8160 o          1 PNR      -0.397500
      4 C22          9.1500    -0.1220     0.0930 ca         1 PNR      -0.186200
      5 C21          8.6280    -1.0180    -0.8290 ca         1 PNR      -0.032000
      6 C20          7.2860    -1.3440    -0.7590 ca         1 PNR      -0.128000
      7 C23          8.3610     0.4470     1.0830 ca         1 PNR      -0.032000
      8 C24          7.0210     0.1130     1.1510 ca         1 PNR      -0.128000
      9 C19          6.4950    -0.7820     0.2310 ca         1 PNR       0.156100
     10 O18          5.1870    -1.1830     0.3140 os         1 PNR      -0.371200
     11 C16          4.2010    -0.3010     0.0140 c          1 PNR       0.600100
     12 O17          4.4290     0.8230    -0.3300 o          1 PNR      -0.447000
     13 C15          2.8580    -0.9450     0.1650 c3         1 PNR      -0.136400
     14 C14          1.6870     0.0000    -0.0500 c3         1 PNR      -0.068400
     15 C13          0.3570    -0.7280     0.0980 c3         1 PNR      -0.076400
     16 C12         -0.8500     0.1840    -0.0800 c3         1 PNR      -0.073400
     17 C11         -2.1740    -0.5560     0.0610 c3         1 PNR      -0.074400
     18 C10         -3.3940     0.3410    -0.1030 c3         1 PNR      -0.074400
     19 C9          -4.7110    -0.4110     0.0390 c3         1 PNR      -0.074400
     20 C8          -5.9390     0.4760    -0.1220 c3         1 PNR      -0.074400
     21 C7          -7.2500    -0.2850     0.0250 c3         1 PNR      -0.074400
     22 C6          -8.4840     0.5940    -0.1320 c3         1 PNR      -0.074400
     23 C5          -9.7900    -0.1740     0.0220 c3         1 PNR      -0.074400
     24 C4         -11.0290     0.7000    -0.1250 c3         1 PNR      -0.074400
     25 C3         -12.3320    -0.0730     0.0350 c3         1 PNR      -0.075400
     26 C2         -13.5750     0.7980    -0.1010 c3         1 PNR      -0.074400
     27 C1         -14.8680     0.0120     0.0690 c3         1 PNR      -0.088100
     28 H1           9.2450    -1.4600    -1.5970 ha         1 PNR       0.155000
     29 H2           6.8580    -2.0420    -1.4660 ha         1 PNR       0.140000
     30 H3           8.7760     1.1390     1.8000 ha         1 PNR       0.155000
     31 H4           6.4010     0.5380     1.9290 ha         1 PNR       0.140000
     32 H5           2.8130    -1.7820    -0.5410 hc         1 PNR       0.076700
     33 H6           2.8100    -1.4020     1.1590 hc         1 PNR       0.076700
     34 H7           1.7370     0.8210     0.6710 hc         1 PNR       0.056200
     35 H8           1.7480     0.4530    -1.0430 hc         1 PNR       0.056200
     36 H9           0.3070    -1.5420    -0.6330 hc         1 PNR       0.038700
     37 H10          0.3100    -1.2030     1.0830 hc         1 PNR       0.038700
     38 H11         -0.8060     0.9940     0.6570 hc         1 PNR       0.041200
     39 H12         -0.8050     0.6640    -1.0630 hc         1 PNR       0.041200
     40 H13         -2.2170    -1.3640    -0.6790 hc         1 PNR       0.037700
     41 H14         -2.2130    -1.0440     1.0420 hc         1 PNR       0.037700
     42 H15         -3.3560     1.1490     0.6370 hc         1 PNR       0.038700
     43 H16         -3.3590     0.8290    -1.0840 hc         1 PNR       0.038700
     44 H17         -4.7480    -1.2180    -0.7020 hc         1 PNR       0.036700
     45 H18         -4.7430    -0.9010     1.0190 hc         1 PNR       0.036700
     46 H19         -5.9030     1.2850     0.6170 hc         1 PNR       0.037700
     47 H20         -5.9100     0.9630    -1.1040 hc         1 PNR       0.037700
     48 H21         -7.2840    -1.0930    -0.7140 hc         1 PNR       0.036700
     49 H22         -7.2760    -0.7740     1.0060 hc         1 PNR       0.036700
     50 H23         -8.4510     1.4030     0.6070 hc         1 PNR       0.037700
     51 H24         -8.4620     1.0800    -1.1140 hc         1 PNR       0.037700
     52 H25         -9.8250    -0.9810    -0.7190 hc         1 PNR       0.036700
     53 H26         -9.8080    -0.6650     1.0020 hc         1 PNR       0.036700
     54 H27        -10.9940     1.5070     0.6160 hc         1 PNR       0.036700
     55 H28        -11.0150     1.1900    -1.1050 hc         1 PNR       0.036700
     56 H29        -12.3700    -0.8770    -0.7090 hc         1 PNR       0.036700
     57 H30        -12.3420    -0.5680     1.0130 hc         1 PNR       0.036700
     58 H31        -13.5350     1.6010     0.6410 hc         1 PNR       0.036700
     59 H32        -13.5680     1.2890    -1.0790 hc         1 PNR       0.036700
     60 H33        -15.7450     0.6560    -0.0180 hc         1 PNR       0.031367
     61 H34        -14.9570    -0.7700    -0.6870 hc         1 PNR       0.031367
     62 H35        -14.9080    -0.4710     1.0470 hc         1 PNR       0.031367
@<TRIPOS>BOND
     1     1     2 1   
     2     2     3 1   
     3     2     4 1   
     4     4     5 ar  
     5     4     7 ar  
     6     5     6 ar  
     7     5    28 1   
     8     6     9 ar  
     9     6    29 1   
    10     7     8 ar  
    11     7    30 1   
    12     8     9 ar  
    13     8    31 1   
    14     9    10 1   
    15    10    11 1   
    16    11    12 2   
    17    11    13 1   
    18    13    14 1   
    19    13    32 1   
    20    13    33 1   
    21    14    15 1   
    22    14    34 1   
    23    14    35 1   
    24    15    16 1   
    25    15    36 1   
    26    15    37 1   
    27    16    17 1   
    28    16    38 1   
    29    16    39 1   
    30    17    18 1   
    31    17    40 1   
    32    17    41 1   
    33    18    19 1   
    34    18    42 1   
    35    18    43 1   
    36    19    20 1   
    37    19    44 1   
    38    19    45 1   
    39    20    21 1   
    40    20    46 1   
    41    20    47 1   
    42    21    22 1   
    43    21    48 1   
    44    21    49 1   
    45    22    23 1   
    46    22    50 1   
    47    22    51 1   
    48    23    24 1   
    49    23    52 1   
    50    23    53 1   
    51    24    25 1   
    52    24    54 1   
    53    24    55 1   
    54    25    26 1   
    55    25    56 1   
    56    25    57 1   
    57    26    27 1   
    58    26    58 1   
    59    26    59 1   
    60    27    60 1   
    61    27    61 1   
    62    27    62 1   
@<TRIPOS>SUBSTRUCTURE
     1 PNR         1 TEMP              0 ****  ****    0 ROOT
