@<TRIPOS>MOLECULE
PNR
   62    62     1     0     0
SMALL
No Charge or Current Charge


@<TRIPOS>ATOM
      1 O2          10.0920     2.4900     1.2910 o          1 PNR      -0.397500
      2 N1           9.9300     1.2890     1.5450 no         1 PNR       0.696200
      3 O1          10.7820     0.5850     2.1020 o          1 PNR      -0.397500
      4 C22          8.6310     0.6510     1.1530 ca         1 PNR      -0.186200
      5 C21          8.3930    -0.7180     1.4230 ca         1 PNR      -0.032000
      6 C20          7.1730    -1.3110     1.0540 ca         1 PNR      -0.128000
      7 C23          7.6210     1.4120     0.5160 ca         1 PNR      -0.032000
      8 C24          6.4040     0.8110     0.1500 ca         1 PNR      -0.128000
      9 C19          6.1850    -0.5550     0.4080 ca         1 PNR       0.156100
     10 O18          4.9950    -1.1610     0.0810 os         1 PNR      -0.371200
     11 C16          4.3650    -1.0220    -1.1280 c          1 PNR       0.600100
     12 O17          4.8490    -0.4660    -2.1040 o          1 PNR      -0.447000
     13 C15          3.0040    -1.7230    -1.1430 c3         1 PNR      -0.136400
     14 C14          1.8540    -0.7200    -0.8920 c3         1 PNR      -0.068400
     15 C13          0.4610    -1.3870    -0.8900 c3         1 PNR      -0.076400
     16 C12         -0.6880    -0.3860    -0.6400 c3         1 PNR      -0.073400
     17 C11         -2.0810    -1.0540    -0.6380 c3         1 PNR      -0.074400
     18 C10         -3.2310    -0.0530    -0.3880 c3         1 PNR      -0.074400
     19 C9          -4.6230    -0.7210    -0.3850 c3         1 PNR      -0.074400
     20 C8          -5.7730     0.2800    -0.1350 c3         1 PNR      -0.074400
     21 C7          -7.1650    -0.3880    -0.1320 c3         1 PNR      -0.074400
     22 C6          -8.3150     0.6120     0.1180 c3         1 PNR      -0.074400
     23 C5          -9.7070    -0.0550     0.1210 c3         1 PNR      -0.074400
     24 C4         -10.8570     0.9450     0.3710 c3         1 PNR      -0.074400
     25 C3         -12.2500     0.2770     0.3740 c3         1 PNR      -0.075400
     26 C2         -13.3990     1.2770     0.6240 c3         1 PNR      -0.074400
     27 C1         -14.7890     0.6110     0.6270 c3         1 PNR      -0.088100
     28 H1           9.1470    -1.3290     1.9180 ha         1 PNR       0.155000
     29 H2           6.9940    -2.3610     1.2670 ha         1 PNR       0.140000
     30 H3           7.7700     2.4700     0.3030 ha         1 PNR       0.155000
     31 H4           5.6320     1.4100    -0.3260 ha         1 PNR       0.140000
     32 H5           2.8580    -2.2010    -2.1180 hc         1 PNR       0.076700
     33 H6           2.9750    -2.4670    -0.3390 hc         1 PNR       0.076700
     34 H7           2.0150    -0.2180     0.0710 hc         1 PNR       0.056200
     35 H8           1.8790     0.0590    -1.6650 hc         1 PNR       0.056200
     36 H9           0.2990    -1.8880    -1.8530 hc         1 PNR       0.038700
     37 H10          0.4350    -2.1650    -0.1160 hc         1 PNR       0.038700
     38 H11         -0.5270     0.1140     0.3230 hc         1 PNR       0.041200
     39 H12         -0.6640     0.3910    -1.4140 hc         1 PNR       0.041200
     40 H13         -2.2420    -1.5550    -1.6010 hc         1 PNR       0.037700
     41 H14         -2.1060    -1.8320     0.1360 hc         1 PNR       0.037700
     42 H15         -3.0690     0.4470     0.5750 hc         1 PNR       0.038700
     43 H16         -3.2060     0.7240    -1.1620 hc         1 PNR       0.038700
     44 H17         -4.7840    -1.2220    -1.3480 hc         1 PNR       0.036700
     45 H18         -4.6480    -1.4990     0.3890 hc         1 PNR       0.036700
     46 H19         -5.6110     0.7800     0.8280 hc         1 PNR       0.037700
     47 H20         -5.7480     1.0570    -0.9090 hc         1 PNR       0.037700
     48 H21         -7.3270    -0.8890    -1.0950 hc         1 PNR       0.036700
     49 H22         -7.1900    -1.1660     0.6420 hc         1 PNR       0.036700
     50 H23         -8.1530     1.1130     1.0810 hc         1 PNR       0.037700
     51 H24         -8.2900     1.3900    -0.6560 hc         1 PNR       0.037700
     52 H25         -9.8690    -0.5560    -0.8420 hc         1 PNR       0.036700
     53 H26         -9.7320    -0.8330     0.8950 hc         1 PNR       0.036700
     54 H27        -10.6960     1.4460     1.3340 hc         1 PNR       0.036700
     55 H28        -10.8320     1.7230    -0.4030 hc         1 PNR       0.036700
     56 H29        -12.4110    -0.2240    -0.5890 hc         1 PNR       0.036700
     57 H30        -12.2740    -0.5010     1.1480 hc         1 PNR       0.036700
     58 H31        -13.2420     1.7790     1.5870 hc         1 PNR       0.036700
     59 H32        -13.3790     2.0550    -0.1490 hc         1 PNR       0.036700
     60 H33        -15.5700     1.3590     0.8080 hc         1 PNR       0.031367
     61 H34        -14.9910     0.1300    -0.3370 hc         1 PNR       0.031367
     62 H35        -14.8530    -0.1490     1.4150 hc         1 PNR       0.031367
@<TRIPOS>BOND
     1     1     2 1   
     2     2     3 1   
     3     2     4 1   
     4     4     5 ar  
     5     4     7 ar  
     6     5     6 ar  
     7     5    28 1   
     8     6     9 ar  
     9     6    29 1   
    10     7     8 ar  
    11     7    30 1   
    12     8     9 ar  
    13     8    31 1   
    14     9    10 1   
    15    10    11 1   
    16    11    12 2   
    17    11    13 1   
    18    13    14 1   
    19    13    32 1   
    20    13    33 1   
    21    14    15 1   
    22    14    34 1   
    23    14    35 1   
    24    15    16 1   
    25    15    36 1   
    26    15    37 1   
    27    16    17 1   
    28    16    38 1   
    29    16    39 1   
    30    17    18 1   
    31    17    40 1   
    32    17    41 1   
    33    18    19 1   
    34    18    42 1   
    35    18    43 1   
    36    19    20 1   
    37    19    44 1   
    38    19    45 1   
    39    20    21 1   
    40    20    46 1   
    41    20    47 1   
    42    21    22 1   
    43    21    48 1   
    44    21    49 1   
    45    22    23 1   
    46    22    50 1   
    47    22    51 1   
    48    23    24 1   
    49    23    52 1   
    50    23    53 1   
    51    24    25 1   
    52    24    54 1   
    53    24    55 1   
    54    25    26 1   
    55    25    56 1   
    56    25    57 1   
    57    26    27 1   
    58    26    58 1   
    59    26    59 1   
    60    27    60 1   
    61    27    61 1   
    62    27    62 1   
@<TRIPOS>SUBSTRUCTURE
     1 PNR         1 TEMP              0 ****  ****    0 ROOT
