@<TRIPOS>MOLECULE
PNT
   49    50     1     0     0
SMALL
abcg2


@<TRIPOS>ATOM
      1 C1          -4.8620    -0.5980    -0.0050 ca         1 PNT       0.162100
      2 C2          -5.9290    -1.5010     0.0570 ca         1 PNT      -0.185500
      3 C3          -7.2290    -1.0480    -0.0040 ca         1 PNT      -0.039000
      4 C4          -7.5180     0.3140    -0.1180 ca         1 PNT      -0.186400
      5 C5          -6.4500     1.2020    -0.1860 ca         1 PNT      -0.039000
      6 C6          -5.1330     0.7620    -0.1330 ca         1 PNT      -0.185500
      7 C7          -2.5020    -0.2660    -0.0050 c3         1 PNT       0.165600
      8 C8          -1.2540    -1.1170     0.1020 c3         1 PNT      -0.081900
      9 C9          -8.9310     0.7640    -0.1810 ce         1 PNT       0.665300
     10 C10          0.0080    -0.2670     0.0140 c3         1 PNT      -0.073400
     11 C11          4.8800    -0.5800     0.0150 ca         1 PNT       0.162100
     12 C12          5.9480    -1.4800     0.0850 ca         1 PNT      -0.185500
     13 C13          7.2470    -1.0250     0.0200 ca         1 PNT      -0.039000
     14 C14          7.5330     0.3370    -0.1040 ca         1 PNT      -0.186400
     15 C15          6.4630     1.2220    -0.1790 ca         1 PNT      -0.039000
     16 C16          5.1470     0.7790    -0.1230 ca         1 PNT      -0.185500
     17 C17          2.5180    -0.2550     0.0070 c3         1 PNT       0.165600
     18 C18          1.2730    -1.1100     0.1110 c3         1 PNT      -0.081900
     19 C19          8.9460     0.7890    -0.1700 ce         1 PNT       0.665300
     20 O1          -3.6300    -1.1260     0.0650 os         1 PNT      -0.346600
     21 O2           3.6490    -1.1110     0.0870 os         1 PNT      -0.346600
     22 N1          -9.8280    -0.0650    -0.5600 n2         1 PNT      -0.830100
     23 N2          -9.1430     2.0790     0.1360 nv         1 PNT      -1.073700
     24 N3           9.8430    -0.0410    -0.5470 n2         1 PNT      -0.830100
     25 N4           9.1560     2.1030     0.1440 nv         1 PNT      -1.073700
     26 H2          -5.7240    -2.5600     0.1560 ha         1 PNT       0.123000
     27 H3          -8.0430    -1.7590     0.0450 ha         1 PNT       0.126500
     28 H5          -6.6220     2.2640    -0.3010 ha         1 PNT       0.126500
     29 H6          -4.3400     1.4940    -0.1950 ha         1 PNT       0.123000
     30 H71         -2.5320     0.4690     0.8080 h1         1 PNT       0.034700
     31 H72         -2.5050     0.2870    -0.9510 h1         1 PNT       0.034700
     32 H81         -1.2640    -1.6640     1.0490 hc         1 PNT       0.059200
     33 H82         -1.2510    -1.8610    -0.7000 hc         1 PNT       0.059200
     34 H101         0.0090     0.2890    -0.9300 hc         1 PNT       0.040200
     35 H102         0.0030     0.4830     0.8120 hc         1 PNT       0.040200
     36 H4           5.7450    -2.5390     0.1920 ha         1 PNT       0.123000
     37 H9           8.0630    -1.7340     0.0750 ha         1 PNT       0.126500
     38 H11          6.6330     2.2840    -0.3010 ha         1 PNT       0.126500
     39 H12          4.3530     1.5090    -0.1930 ha         1 PNT       0.123000
     40 H7'1         2.5240     0.2930    -0.9430 h1         1 PNT       0.034700
     41 H7'2         2.5410     0.4840     0.8160 h1         1 PNT       0.034700
     42 H8'1         1.2810    -1.6540     1.0600 hc         1 PNT       0.059200
     43 H8'2         1.2770    -1.8580    -0.6880 hc         1 PNT       0.059200
     44 HN1        -10.7530     0.3540    -0.5230 hn         1 PNT       0.369400
     45 HN2         -8.5150     2.5150     0.7910 hn         1 PNT       0.457500
     46 HN3        -10.1000     2.3730     0.2490 hn         1 PNT       0.457500
     47 HN'1        10.7680     0.3790    -0.5130 hn         1 PNT       0.369400
     48 HN'2         8.5290     2.5390     0.7990 hn         1 PNT       0.457500
     49 HN'3        10.1130     2.3980     0.2560 hn         1 PNT       0.457500
@<TRIPOS>BOND
     1     1     2 ar  
     2     1     6 ar  
     3     1    20 1   
     4     2     3 ar  
     5     2    26 1   
     6     3     4 ar  
     7     3    27 1   
     8     4     5 ar  
     9     4     9 1   
    10     5     6 ar  
    11     5    28 1   
    12     6    29 1   
    13     7     8 1   
    14     7    20 1   
    15     7    30 1   
    16     7    31 1   
    17     8    10 1   
    18     8    32 1   
    19     8    33 1   
    20     9    22 2   
    21     9    23 1   
    22    10    18 1   
    23    10    34 1   
    24    10    35 1   
    25    11    12 ar  
    26    11    16 ar  
    27    11    21 1   
    28    12    13 ar  
    29    12    36 1   
    30    13    14 ar  
    31    13    37 1   
    32    14    15 ar  
    33    14    19 1   
    34    15    16 ar  
    35    15    38 1   
    36    16    39 1   
    37    17    18 1   
    38    17    21 1   
    39    17    40 1   
    40    17    41 1   
    41    18    42 1   
    42    18    43 1   
    43    19    24 2   
    44    19    25 1   
    45    22    44 1   
    46    23    45 1   
    47    23    46 1   
    48    24    47 1   
    49    25    48 1   
    50    25    49 1   
@<TRIPOS>SUBSTRUCTURE
     1 PNT         1 TEMP              0 ****  ****    0 ROOT
