@<TRIPOS>MOLECULE
PNT
   49    50     1     0     0
SMALL
No Charge or Current Charge


@<TRIPOS>ATOM
      1 C1          -4.9880    -0.5730     0.0010 ca         1 PNT       0.162100
      2 C2          -6.0110    -1.5250     0.1090 ca         1 PNT      -0.185500
      3 C3          -7.3600    -1.1330     0.0630 ca         1 PNT      -0.039000
      4 C4          -7.7110     0.2290    -0.0760 ca         1 PNT      -0.186400
      5 C5          -6.6730     1.1810    -0.2090 ca         1 PNT      -0.039000
      6 C6          -5.3230     0.7860    -0.1640 ca         1 PNT      -0.185500
      7 C7          -2.5640    -0.1230    -0.0520 c3         1 PNT       0.165600
      8 C8          -1.2790    -0.9670     0.0480 c3         1 PNT      -0.081900
      9 C9          -9.1510     0.6310    -0.1580 ce         1 PNT       0.665300
     10 C10          0.0080    -0.1190    -0.0500 c3         1 PNT      -0.073400
     11 C11          5.0060    -0.5590     0.0100 ca         1 PNT       0.162100
     12 C12          6.0310    -1.5080     0.1200 ca         1 PNT      -0.185500
     13 C13          7.3790    -1.1120     0.0770 ca         1 PNT      -0.039000
     14 C14          7.7270     0.2510    -0.0620 ca         1 PNT      -0.186400
     15 C15          6.6860     1.2000    -0.1970 ca         1 PNT      -0.039000
     16 C16          5.3380     0.8010    -0.1540 ca         1 PNT      -0.185500
     17 C17          2.5810    -0.1160    -0.0480 c3         1 PNT       0.165600
     18 C18          1.2980    -0.9640     0.0500 c3         1 PNT      -0.081900
     19 C19          9.1650     0.6570    -0.1410 ce         1 PNT       0.665300
     20 O1          -3.6830    -1.0190     0.0520 os         1 PNT      -0.346600
     21 O2           3.7020    -1.0080     0.0580 os         1 PNT      -0.346600
     22 N1         -10.0870    -0.1820    -0.4240 n2         1 PNT      -0.830100
     23 N2          -9.4750     1.8960     0.1830 nv         1 PNT      -1.073700
     24 N3          10.1050    -0.1530    -0.4050 n2         1 PNT      -0.830100
     25 N4           9.4850     1.9230     0.2010 nv         1 PNT      -1.073700
     26 H2          -5.7570    -2.5750     0.2270 ha         1 PNT       0.123000
     27 H3          -8.1330    -1.8950     0.1470 ha         1 PNT       0.126500
     28 H5          -6.9010     2.2350    -0.3600 ha         1 PNT       0.126500
     29 H6          -4.5560     1.5480    -0.2650 ha         1 PNT       0.123000
     30 H71         -2.5820     0.6160     0.7600 h1         1 PNT       0.034700
     31 H72         -2.5800     0.4080    -1.0130 h1         1 PNT       0.034700
     32 H81         -1.2840    -1.5110     1.0010 hc         1 PNT       0.059200
     33 H82         -1.2820    -1.7170    -0.7530 hc         1 PNT       0.059200
     34 H101         0.0080     0.4270    -1.0020 hc         1 PNT       0.040200
     35 H102         0.0070     0.6320     0.7500 hc         1 PNT       0.040200
     36 H4           5.7800    -2.5590     0.2370 ha         1 PNT       0.123000
     37 H9           8.1550    -1.8720     0.1610 ha         1 PNT       0.126500
     38 H11          6.9120     2.2540    -0.3470 ha         1 PNT       0.126500
     39 H12          4.5680     1.5610    -0.2560 ha         1 PNT       0.123000
     40 H7'1         2.5970     0.4150    -1.0090 h1         1 PNT       0.034700
     41 H7'2         2.5950     0.6230     0.7650 h1         1 PNT       0.034700
     42 H8'1         1.3020    -1.5080     1.0030 hc         1 PNT       0.059200
     43 H8'2         1.3040    -1.7130    -0.7510 hc         1 PNT       0.059200
     44 HN1        -10.9370     0.3630    -0.6070 hn         1 PNT       0.369400
     45 HN2         -8.7530     2.3970     0.6860 hn         1 PNT       0.457500
     46 HN3        -10.4160     2.0380     0.5290 hn         1 PNT       0.457500
     47 HN'1        10.9530     0.3940    -0.5860 hn         1 PNT       0.369400
     48 HN'2         8.7610     2.4220     0.7030 hn         1 PNT       0.457500
     49 HN'3        10.4260     2.0680     0.5490 hn         1 PNT       0.457500
@<TRIPOS>BOND
     1     1     2 ar  
     2     1     6 ar  
     3     1    20 1   
     4     2     3 ar  
     5     2    26 1   
     6     3     4 ar  
     7     3    27 1   
     8     4     5 ar  
     9     4     9 1   
    10     5     6 ar  
    11     5    28 1   
    12     6    29 1   
    13     7     8 1   
    14     7    20 1   
    15     7    30 1   
    16     7    31 1   
    17     8    10 1   
    18     8    32 1   
    19     8    33 1   
    20     9    22 2   
    21     9    23 1   
    22    10    18 1   
    23    10    34 1   
    24    10    35 1   
    25    11    12 ar  
    26    11    16 ar  
    27    11    21 1   
    28    12    13 ar  
    29    12    36 1   
    30    13    14 ar  
    31    13    37 1   
    32    14    15 ar  
    33    14    19 1   
    34    15    16 ar  
    35    15    38 1   
    36    16    39 1   
    37    17    18 1   
    38    17    21 1   
    39    17    40 1   
    40    17    41 1   
    41    18    42 1   
    42    18    43 1   
    43    19    24 2   
    44    19    25 1   
    45    22    44 1   
    46    23    45 1   
    47    23    46 1   
    48    24    47 1   
    49    25    48 1   
    50    25    49 1   
@<TRIPOS>SUBSTRUCTURE
     1 PNT         1 TEMP              0 ****  ****    0 ROOT
