@<TRIPOS>MOLECULE
PNU
   31    33     1     0     0
SMALL
No Charge or Current Charge


@<TRIPOS>ATOM
      1 C1           0.6510    -0.4900     2.1450 ca         1 PNU       0.296300
      2 N2           1.7070    -0.1930     2.9300 nb         1 PNU      -0.259000
      3 C3           1.4660    -0.1000     4.2420 ca         1 PNU       0.408900
      4 C4           0.2000    -0.2970     4.7870 ca         1 PNU      -0.307000
      5 C5          -0.8300    -0.6060     3.8910 ca         1 PNU       0.258000
      6 N6          -0.6130    -0.7060     2.5680 nb         1 PNU      -0.236000
      7 C7          -0.5860    -0.4620    -4.6070 ca         1 PNU      -0.004900
      8 C8          -1.6510    -0.8620    -3.7850 ca         1 PNU       0.365900
      9 N9          -1.6050    -0.6470    -2.4390 nb         1 PNU      -0.647000
     10 C10         -0.4970    -0.0370    -1.9160 ca         1 PNU       0.327300
     11 C11          0.6010     0.3860    -2.7090 ca         1 PNU      -0.094000
     12 C12          0.5220     0.1520    -4.0850 ca         1 PNU      -0.081800
     13 C13          1.4270     0.4370    -5.1770 cc         1 PNU      -0.241200
     14 O14         -0.4410    -0.5830    -5.9570 os         1 PNU      -0.158200
     15 C15          0.7750    -0.0410    -6.3090 cd         1 PNU      -0.056900
     16 C16         -0.5030     0.1860    -0.4020 c3         1 PNU       0.022000
     17 S17          0.9710    -0.6220     0.3920 ss         1 PNU      -0.312300
     18 N18          2.5300     0.2010     5.0260 nv         1 PNU      -1.076900
     19 Cl19        -2.4690    -0.8780     4.4610 cl         1 PNU      -0.165000
     20 C21         -0.5450     1.6860    -0.0360 c3         1 PNU      -0.082100
     21 HC4          0.0160    -0.2200     5.8540 ha         1 PNU       0.143000
     22 H11C         1.4670     0.8700    -2.2650 ha         1 PNU       0.135000
     23 H13C         2.4040     0.9170    -5.1430 ha         1 PNU       0.220000
     24 H15C         1.0590    -0.0530    -7.3600 h4         1 PNU       0.242000
     25 H16C        -1.4050    -0.2920     0.0020 h1         1 PNU       0.117700
     26 H181         3.3790     0.5360     4.5770 hn         1 PNU       0.503000
     27 H182         2.3680     0.5140     5.9810 hn         1 PNU       0.503000
     28 H211         0.3630     2.1990    -0.3730 hc         1 PNU       0.047367
     29 H212        -1.4090     2.1700    -0.5080 hc         1 PNU       0.047367
     30 H213        -0.6330     1.8240     1.0480 hc         1 PNU       0.047367
     31 HC8         -2.5370    -1.3500    -4.1900 h4         1 PNU       0.038100
@<TRIPOS>BOND
     1     1     2 ar  
     2     1     6 ar  
     3     1    17 1   
     4     2     3 ar  
     5     3     4 ar  
     6     3    18 1   
     7     4     5 ar  
     8     4    21 1   
     9     5     6 ar  
    10     5    19 1   
    11     7     8 ar  
    12     7    12 ar  
    13     7    14 1   
    14     8     9 ar  
    15     8    31 1   
    16     9    10 ar  
    17    10    11 ar  
    18    10    16 1   
    19    11    12 ar  
    20    11    22 1   
    21    12    13 1   
    22    13    15 2   
    23    13    23 1   
    24    14    15 1   
    25    15    24 1   
    26    16    17 1   
    27    16    20 1   
    28    16    25 1   
    29    18    26 1   
    30    18    27 1   
    31    20    28 1   
    32    20    29 1   
    33    20    30 1   
@<TRIPOS>SUBSTRUCTURE
     1 PNU         1 TEMP              0 ****  ****    0 ROOT
