@<TRIPOS>MOLECULE
PNU
   31    33     1     0     0
SMALL
bcc


@<TRIPOS>ATOM
      1 C1           0.6700    -0.0730     2.1030 ca         1 PNU       0.822300
      2 N2           1.7030    -0.3500     2.8780 nb         1 PNU      -0.785000
      3 C3           1.4680    -0.4560     4.1910 ca         1 PNU       0.737200
      4 C4           0.1660    -0.2680     4.7070 ca         1 PNU      -0.455600
      5 C5          -0.7950     0.0150     3.7770 ca         1 PNU       0.586300
      6 N6          -0.5840     0.1170     2.4750 nb         1 PNU      -0.762000
      7 C7          -0.2280    -0.8640    -4.3490 ca         1 PNU      -0.070200
      8 C8          -0.9150    -1.5660    -3.3770 ca         1 PNU       0.431200
      9 N9          -0.9700    -1.0920    -2.1440 nb         1 PNU      -0.647000
     10 C10         -0.3660     0.0660    -1.8390 ca         1 PNU       0.392600
     11 C11          0.3450     0.8220    -2.7590 ca         1 PNU      -0.177300
     12 C12          0.4150     0.3380    -4.0630 ca         1 PNU      -0.081800
     13 C13          1.0060     0.7570    -5.3010 cc         1 PNU      -0.191200
     14 O14         -0.0680    -1.1880    -5.6480 os         1 PNU      -0.158200
     15 C15          0.6770    -0.1970    -6.1970 cd         1 PNU      -0.006900
     16 C16         -0.4900     0.5020    -0.3990 c3         1 PNU      -0.025900
     17 S17          1.0880     0.0170     0.4010 ss         1 PNU      -0.264400
     18 N18          2.4970    -0.7420     4.9870 nv         1 PNU      -0.966500
     19 CL19        -2.4250     0.2680     4.2970 cl         1 PNU      -0.165000
     20 C21         -0.7850     1.9800    -0.2130 c3         1 PNU      -0.082100
     21 HC4         -0.0450    -0.3420     5.7640 ha         1 PNU       0.161000
     22 H11C         0.8230     1.7510    -2.4790 ha         1 PNU       0.153000
     23 H13C         1.5890     1.6430    -5.4940 ha         1 PNU       0.170000
     24 H15C         0.9000    -0.3020    -7.2470 h4         1 PNU       0.192000
     25 H16C        -1.2710    -0.1000     0.0650 h1         1 PNU       0.117700
     26 H181         3.4210    -0.8470     4.6030 hn         1 PNU       0.447800
     27 H182         2.3860    -0.8100     5.9830 hn         1 PNU       0.447800
     28 H211         0.0150     2.6110    -0.5990 hc         1 PNU       0.047367
     29 H212        -1.7080     2.2430    -0.7340 hc         1 PNU       0.047367
     30 H213        -0.9170     2.2090     0.8420 hc         1 PNU       0.047367
     31 HC8         -1.4200    -2.5020    -3.5870 h4         1 PNU       0.038100
@<TRIPOS>BOND
     1     1     2 ar  
     2     1     6 ar  
     3     1    17 1   
     4     2     3 ar  
     5     3     4 ar  
     6     3    18 1   
     7     4     5 ar  
     8     4    21 1   
     9     5     6 ar  
    10     5    19 1   
    11     7     8 ar  
    12     7    12 ar  
    13     7    14 1   
    14     8     9 ar  
    15     8    31 1   
    16     9    10 ar  
    17    10    11 ar  
    18    10    16 1   
    19    11    12 ar  
    20    11    22 1   
    21    12    13 1   
    22    13    15 2   
    23    13    23 1   
    24    14    15 1   
    25    15    24 1   
    26    16    17 1   
    27    16    20 1   
    28    16    25 1   
    29    18    26 1   
    30    18    27 1   
    31    20    28 1   
    32    20    29 1   
    33    20    30 1   
@<TRIPOS>SUBSTRUCTURE
     1 PNU         1 TEMP              0 ****  ****    0 ROOT
