@<TRIPOS>MOLECULE
PNV
   41    43     1     0     0
SMALL
No Charge or Current Charge


@<TRIPOS>ATOM
      1 C24          6.4740     0.9450     0.4940 ca         1 PNV      -0.169500
      2 C23          7.7540     0.3730     0.5920 ca         1 PNV      -0.077500
      3 C22          7.9280    -0.9990     0.3480 ca         1 PNV      -0.154000
      4 C21          6.8250    -1.7990     0.0070 ca         1 PNV      -0.077500
      5 C20          5.5430    -1.2270    -0.0910 ca         1 PNV      -0.169500
      6 C19          5.3650     0.1530     0.1540 ca         1 PNV       0.146100
      7 O1           4.1330     0.7700     0.0730 os         1 PNV      -0.311100
      8 C2           2.9280     0.0460    -0.2700 c3         1 PNV       0.069600
      9 C3           1.6800     0.9580    -0.2940 c          1 PNV       0.609100
     10 O18          1.7070     2.1590    -0.0500 o          1 PNV      -0.569100
     11 N4           0.5020     0.3150    -0.6210 ns         1 PNV      -0.478900
     12 C5          -0.7980     0.9660    -0.6630 cy         1 PNV      -0.001300
     13 C6          -1.5960     1.1800     0.6660 c          1 PNV       0.533000
     14 O17         -1.3400     1.5750     1.7960 o          1 PNV      -0.504000
     15 C8          -2.0580     0.1440    -1.1060 cy         1 PNV       0.202700
     16 N7          -2.7540     0.6700     0.0730 nj         1 PNV      -0.304800
     17 S11         -2.1790    -1.6640    -0.7370 ss         1 PNV      -0.595000
     18 C10         -3.9190    -1.4660    -0.1080 c5         1 PNV       0.163000
     19 C12         -4.8720    -1.4780    -1.3350 c3         1 PNV      -0.077600
     20 C15         -4.2520    -2.6720     0.8010 c3         1 PNV      -0.077600
     21 C9          -3.8490    -0.1070     0.6790 c5         1 PNV      -0.045300
     22 C13         -5.2330     0.6120     0.6860 c          1 PNV       0.734000
     23 O14         -6.0340     0.3190     1.5630 o          1 PNV      -0.703000
     24 O16         -5.4540     1.5160    -0.1090 o          1 PNV      -0.703000
     25 H1           6.3390     2.0070     0.6830 ha         1 PNV       0.124500
     26 H2           8.6090     0.9930     0.8560 ha         1 PNV       0.108000
     27 H3           8.9180    -1.4430     0.4240 ha         1 PNV       0.109000
     28 H4           6.9620    -2.8620    -0.1810 ha         1 PNV       0.108000
     29 H5           4.7070    -1.8670    -0.3560 ha         1 PNV       0.124500
     30 H6           3.0210    -0.4110    -1.2630 h1         1 PNV       0.052700
     31 H7           2.7370    -0.7530     0.4570 h1         1 PNV       0.052700
     32 H8           0.5650    -0.6830    -0.7970 hn         1 PNV       0.328500
     33 H9          -0.7040     1.9080    -1.2150 h1         1 PNV       0.113700
     34 H10         -2.5110     0.3880    -2.0740 h2         1 PNV       0.108700
     35 H11         -4.7450    -2.3950    -1.9240 hc         1 PNV       0.045033
     36 H12         -5.9240    -1.4320    -1.0290 hc         1 PNV       0.045033
     37 H13         -4.6840    -0.6310    -2.0040 hc         1 PNV       0.045033
     38 H14         -3.5520    -2.7390     1.6410 hc         1 PNV       0.045033
     39 H15         -5.2630    -2.5880     1.2160 hc         1 PNV       0.045033
     40 H16         -4.1960    -3.6170     0.2470 hc         1 PNV       0.045033
     41 H17         -3.5700    -0.2880     1.7240 h1         1 PNV       0.059700
@<TRIPOS>BOND
     1     1     2 ar  
     2     1     6 ar  
     3     1    25 1   
     4     2     3 ar  
     5     2    26 1   
     6     3     4 ar  
     7     3    27 1   
     8     4     5 ar  
     9     4    28 1   
    10     5     6 ar  
    11     5    29 1   
    12     6     7 1   
    13     7     8 1   
    14     8     9 1   
    15     8    30 1   
    16     8    31 1   
    17     9    10 2   
    18     9    11 1   
    19    11    12 1   
    20    11    32 1   
    21    12    13 1   
    22    12    15 1   
    23    12    33 1   
    24    13    14 2   
    25    13    16 1   
    26    15    16 1   
    27    15    17 1   
    28    15    34 1   
    29    16    21 1   
    30    17    18 1   
    31    18    19 1   
    32    18    20 1   
    33    18    21 1   
    34    19    35 1   
    35    19    36 1   
    36    19    37 1   
    37    20    38 1   
    38    20    39 1   
    39    20    40 1   
    40    21    22 1   
    41    21    41 1   
    42    22    23 1   
    43    22    24 1   
@<TRIPOS>SUBSTRUCTURE
     1 PNV         1 TEMP              0 ****  ****    0 ROOT
