@<TRIPOS>MOLECULE
PNV
   41    43     1     0     0
SMALL
abcg2


@<TRIPOS>ATOM
      1 C24          6.3190     0.8070    -0.4310 ca         1 PNV      -0.169500
      2 C23          7.5740     0.2480    -0.2700 ca         1 PNV      -0.077500
      3 C22          7.7170    -1.0420     0.2320 ca         1 PNV      -0.154000
      4 C21          6.5830    -1.7610     0.5720 ca         1 PNV      -0.077500
      5 C20          5.3130    -1.2140     0.4170 ca         1 PNV      -0.169500
      6 C19          5.1800     0.0770    -0.0860 ca         1 PNV       0.146100
      7 O1           3.9990     0.7060    -0.2740 os         1 PNV      -0.311100
      8 C2           2.8190     0.0110     0.0150 c3         1 PNV       0.069600
      9 C3           1.6540     0.9260    -0.3170 c          1 PNV       0.609100
     10 O18          1.7900     1.9770    -0.9080 o          1 PNV      -0.569100
     11 N4           0.4650     0.4390     0.1020 ns         1 PNV      -0.478900
     12 C5          -0.7670     1.1140    -0.1040 cy         1 PNV      -0.001300
     13 C6          -1.7500     1.1390     1.0760 c          1 PNV       0.533000
     14 O17         -1.6680     1.3570     2.2560 o          1 PNV      -0.504000
     15 C8          -1.9280     0.4000    -0.8380 cy         1 PNV       0.202700
     16 N7          -2.7860     0.7220     0.2930 nj         1 PNV      -0.304800
     17 S11         -1.9060    -1.4090    -0.8470 ss         1 PNV      -0.595000
     18 C10         -3.6920    -1.4120    -0.3380 c5         1 PNV       0.163000
     19 C12         -4.5480    -1.2100    -1.5860 c3         1 PNV      -0.077600
     20 C15         -4.0150    -2.7460     0.3160 c3         1 PNV      -0.077600
     21 C9          -3.8130    -0.2290     0.6710 c5         1 PNV      -0.045300
     22 C13         -5.2440     0.3560     0.7130 c          1 PNV       0.734000
     23 O14         -6.0790    -0.3590     1.3010 o          1 PNV      -0.703000
     24 O16         -5.4290     1.4500     0.1610 o          1 PNV      -0.703000
     25 H1           6.2090     1.8110    -0.8230 ha         1 PNV       0.124500
     26 H2           8.4500     0.8250    -0.5400 ha         1 PNV       0.108000
     27 H3           8.7000    -1.4760     0.3580 ha         1 PNV       0.109000
     28 H4           6.6760    -2.7650     0.9660 ha         1 PNV       0.108000
     29 H5           4.4510    -1.8050     0.6950 ha         1 PNV       0.124500
     30 H6           2.7300    -0.9050    -0.5830 h1         1 PNV       0.052700
     31 H7           2.7650    -0.2830     1.0710 h1         1 PNV       0.052700
     32 H8           0.4450    -0.4430     0.5940 hn         1 PNV       0.328500
     33 H9          -0.5760     2.1060    -0.5150 h1         1 PNV       0.113700
     34 H10         -2.2310     0.8170    -1.7980 h2         1 PNV       0.108700
     35 H11         -4.3490    -2.0000    -2.3090 hc         1 PNV       0.045033
     36 H12         -5.6070    -1.2540    -1.3310 hc         1 PNV       0.045033
     37 H13         -4.3580    -0.2510    -2.0690 hc         1 PNV       0.045033
     38 H14         -3.3650    -2.9460     1.1670 hc         1 PNV       0.045033
     39 H15         -5.0450    -2.7290     0.6700 hc         1 PNV       0.045033
     40 H16         -3.9140    -3.5670    -0.3950 hc         1 PNV       0.045033
     41 H17         -3.5630    -0.6070     1.6680 h1         1 PNV       0.059700
@<TRIPOS>BOND
     1     1     2 ar  
     2     1     6 ar  
     3     1    25 1   
     4     2     3 ar  
     5     2    26 1   
     6     3     4 ar  
     7     3    27 1   
     8     4     5 ar  
     9     4    28 1   
    10     5     6 ar  
    11     5    29 1   
    12     6     7 1   
    13     7     8 1   
    14     8     9 1   
    15     8    30 1   
    16     8    31 1   
    17     9    10 2   
    18     9    11 1   
    19    11    12 1   
    20    11    32 1   
    21    12    13 1   
    22    12    15 1   
    23    12    33 1   
    24    13    14 2   
    25    13    16 1   
    26    15    16 1   
    27    15    17 1   
    28    15    34 1   
    29    16    21 1   
    30    17    18 1   
    31    18    19 1   
    32    18    20 1   
    33    18    21 1   
    34    19    35 1   
    35    19    36 1   
    36    19    37 1   
    37    20    38 1   
    38    20    39 1   
    39    20    40 1   
    40    21    22 1   
    41    21    41 1   
    42    22    23 1   
    43    22    24 1   
@<TRIPOS>SUBSTRUCTURE
     1 PNV         1 TEMP              0 ****  ****    0 ROOT
