@<TRIPOS>MOLECULE
PNW
   36    37     1     0     0
SMALL
No Charge or Current Charge


@<TRIPOS>ATOM
      1 C1           1.1840     0.6990    -0.1390 c6         1 PNW       0.362300
      2 N1          -5.3720    -0.2250    -0.2710 no         1 PNW       0.701200
      3 O1           0.0580     1.4060     0.4140 os         1 PNW      -0.337100
      4 C2           2.4940     1.5250     0.0820 c6         1 PNW       0.116300
      5 O2           2.4350     2.8460    -0.5140 oh         1 PNW      -0.718000
      6 C3           3.6920     0.7220    -0.4980 c6         1 PNW       0.137300
      7 O3           4.9220     1.4350    -0.2820 oh         1 PNW      -0.661000
      8 C4           3.7550    -0.6960     0.1470 c6         1 PNW       0.145300
      9 O4           4.8410    -1.4440    -0.4320 oh         1 PNW      -0.715000
     10 C5           2.3780    -1.4120    -0.0360 c6         1 PNW       0.177300
     11 O5           1.3170    -0.5830     0.5100 os         1 PNW      -0.459000
     12 C6           2.3290    -2.8070     0.6710 c3         1 PNW       0.171600
     13 O6           1.0500    -3.4670     0.5480 oh         1 PNW      -0.716000
     14 C7          -1.2370     0.9640     0.2220 ca         1 PNW       0.191100
     15 O7          -6.2440     0.4430     0.3000 o          1 PNW      -0.405000
     16 C8          -2.2640     1.6890     0.8430 ca         1 PNW      -0.175500
     17 O8          -5.6170    -1.2150    -0.9730 o          1 PNW      -0.405000
     18 C9          -3.6080     1.3100     0.6880 ca         1 PNW      -0.010000
     19 C10         -3.9420     0.1860    -0.1020 ca         1 PNW      -0.220200
     20 C11         -2.9070    -0.5450    -0.7300 ca         1 PNW      -0.010000
     21 C12         -1.5650    -0.1570    -0.5710 ca         1 PNW      -0.175500
     22 H1           1.0290     0.5580    -1.2200 h2         1 PNW       0.051700
     23 H2           2.6400     1.6170     1.1700 h1         1 PNW       0.071700
     24 HO2          1.6110     3.2740    -0.1780 ho         1 PNW       0.525000
     25 H3           3.5220     0.5990    -1.5790 h1         1 PNW       0.055700
     26 HO3          4.6920     2.3820    -0.4310 ho         1 PNW       0.468000
     27 H4           3.9280    -0.5720     1.2270 h1         1 PNW       0.059700
     28 HO4          5.5790    -0.7920    -0.5220 ho         1 PNW       0.528000
     29 H5           2.1880    -1.5680    -1.1090 h1         1 PNW       0.061700
     30 H6           3.1180    -3.4380     0.2380 h1         1 PNW       0.041700
     31 H6A          2.5770    -2.6590     1.7310 h1         1 PNW       0.041700
     32 HO6          1.1010    -4.2950     1.0810 ho         1 PNW       0.510000
     33 H8          -2.0150     2.5550     1.4510 ha         1 PNW       0.143500
     34 H9          -4.3810     1.8940     1.1860 ha         1 PNW       0.152000
     35 H11         -3.1320    -1.4150    -1.3450 ha         1 PNW       0.152000
     36 H12         -0.7980    -0.7430    -1.0670 ha         1 PNW       0.143500
@<TRIPOS>BOND
     1     1     3 1   
     2     1     4 1   
     3     1    11 1   
     4     1    22 1   
     5     2    15 1   
     6     2    17 1   
     7     2    19 1   
     8     3    14 1   
     9     4     5 1   
    10     4     6 1   
    11     4    23 1   
    12     5    24 1   
    13     6     7 1   
    14     6     8 1   
    15     6    25 1   
    16     7    26 1   
    17     8     9 1   
    18     8    10 1   
    19     8    27 1   
    20     9    28 1   
    21    10    11 1   
    22    10    12 1   
    23    10    29 1   
    24    12    13 1   
    25    12    30 1   
    26    12    31 1   
    27    13    32 1   
    28    14    16 ar  
    29    14    21 ar  
    30    16    18 ar  
    31    16    33 1   
    32    18    19 ar  
    33    18    34 1   
    34    19    20 ar  
    35    20    21 ar  
    36    20    35 1   
    37    21    36 1   
@<TRIPOS>SUBSTRUCTURE
     1 PNW         1 TEMP              0 ****  ****    0 ROOT
