@<TRIPOS>MOLECULE
PNW
   36    37     1     0     0
SMALL
abcg2


@<TRIPOS>ATOM
      1 C1           1.1250     0.5870    -0.0250 c6         1 PNW       0.362300
      2 N1          -5.2550    -0.0660    -0.3810 no         1 PNW       0.701200
      3 O1           0.0530     1.2050     0.6250 os         1 PNW      -0.337100
      4 C2           2.3450     1.4910     0.1270 c6         1 PNW       0.116300
      5 O2           2.1830     2.7030    -0.5620 oh         1 PNW      -0.718000
      6 C3           3.5540     0.7730    -0.4630 c6         1 PNW       0.137300
      7 O3           4.7500     1.4680    -0.2080 oh         1 PNW      -0.661000
      8 C4           3.7010    -0.6260     0.1310 c6         1 PNW       0.145300
      9 O4           4.7080    -1.3540    -0.5230 oh         1 PNW      -0.715000
     10 C5           2.3830    -1.3830    -0.0280 c6         1 PNW       0.177300
     11 O5           1.3510    -0.6390     0.5950 os         1 PNW      -0.459000
     12 C6           2.4120    -2.7540     0.6110 c3         1 PNW       0.171600
     13 O6           1.1870    -3.3940     0.3460 oh         1 PNW      -0.716000
     14 C7          -1.2080     0.8260     0.3540 ca         1 PNW       0.191100
     15 O7          -6.0930     0.7130     0.0140 o          1 PNW      -0.405000
     16 C8          -2.2090     1.6930     0.7970 ca         1 PNW      -0.175500
     17 O8          -5.5150    -1.0840    -0.9800 o          1 PNW      -0.405000
     18 C9          -3.5350     1.4040     0.5620 ca         1 PNW      -0.010000
     19 C10         -3.8650     0.2400    -0.1230 ca         1 PNW      -0.220200
     20 C11         -2.8810    -0.6350    -0.5590 ca         1 PNW      -0.010000
     21 C12         -1.5500    -0.3500    -0.3160 ca         1 PNW      -0.175500
     22 H1           0.8890     0.4480    -1.0950 h2         1 PNW       0.051700
     23 H2           2.5170     1.6520     1.2010 h1         1 PNW       0.071700
     24 HO2          1.6150     3.2830    -0.0470 ho         1 PNW       0.525000
     25 H3           3.3920     0.6600    -1.5470 h1         1 PNW       0.055700
     26 HO3          4.7650     2.2650    -0.7470 ho         1 PNW       0.468000
     27 H4           3.9150    -0.5290     1.2070 h1         1 PNW       0.059700
     28 HO4          5.5330    -0.8660    -0.4400 ho         1 PNW       0.528000
     29 H5           2.1670    -1.4970    -1.1030 h1         1 PNW       0.061700
     30 H6           3.2600    -3.3080     0.1970 h1         1 PNW       0.041700
     31 H6A          2.5950    -2.6420     1.6890 h1         1 PNW       0.041700
     32 HO6          1.2420    -4.2920     0.6830 ho         1 PNW       0.510000
     33 H8          -1.9360     2.6000     1.3200 ha         1 PNW       0.143500
     34 H9          -4.2970     2.0880     0.9060 ha         1 PNW       0.152000
     35 H11         -3.1360    -1.5460    -1.0800 ha         1 PNW       0.152000
     36 H12         -0.8030    -1.0640    -0.6300 ha         1 PNW       0.143500
@<TRIPOS>BOND
     1     1     3 1   
     2     1     4 1   
     3     1    11 1   
     4     1    22 1   
     5     2    15 1   
     6     2    17 1   
     7     2    19 1   
     8     3    14 1   
     9     4     5 1   
    10     4     6 1   
    11     4    23 1   
    12     5    24 1   
    13     6     7 1   
    14     6     8 1   
    15     6    25 1   
    16     7    26 1   
    17     8     9 1   
    18     8    10 1   
    19     8    27 1   
    20     9    28 1   
    21    10    11 1   
    22    10    12 1   
    23    10    29 1   
    24    12    13 1   
    25    12    30 1   
    26    12    31 1   
    27    13    32 1   
    28    14    16 ar  
    29    14    21 ar  
    30    16    18 ar  
    31    16    33 1   
    32    18    19 ar  
    33    18    34 1   
    34    19    20 ar  
    35    20    21 ar  
    36    20    35 1   
    37    21    36 1   
@<TRIPOS>SUBSTRUCTURE
     1 PNW         1 TEMP              0 ****  ****    0 ROOT
