@<TRIPOS>MOLECULE
PNX
   38    39     1     0     0
SMALL
abcg2


@<TRIPOS>ATOM
      1 CAA         -6.7700     0.3220     1.3970 c3         1 PNX      -0.202100
      2 CAM         -5.7600     0.3520     0.2820 c          1 PNX       0.571100
      3 OAD         -6.0870     0.4420    -0.8800 o          1 PNX      -0.521100
      4 CAJ         -4.3180     0.2470     0.7060 c3         1 PNX      -0.182400
      5 CAH         -3.3160     0.1210    -0.4290 c3         1 PNX      -0.062400
      6 CAI         -1.8870     0.0250     0.0900 c3         1 PNX      -0.096400
      7 CAK         -0.8950    -0.1340    -1.0540 c3         1 PNX       0.100000
      8 N1           0.4910    -0.2370    -0.5950 n          1 PNX      -0.373400
      9 C6           1.2210     0.9520    -0.4880 c          1 PNX       0.634600
     10 O6           0.7350     2.0340    -0.7660 o          1 PNX      -0.539000
     11 C5           2.5490     0.7170    -0.0350 cc         1 PNX      -0.355600
     12 N7           3.6040     1.5670     0.1960 na         1 PNX      -0.111500
     13 CAB          3.6350     3.0030     0.0100 c3         1 PNX       0.061900
     14 C8           4.6080     0.7980     0.6270 cc         1 PNX       0.447400
     15 N9           4.2950    -0.4850     0.6980 nd         1 PNX      -0.705000
     16 C4           3.0180    -0.5300     0.2860 cd         1 PNX       0.438900
     17 N3           2.2290    -1.6390     0.1830 n          1 PNX      -0.359300
     18 CAC          2.7140    -2.9580     0.5570 c3         1 PNX       0.102300
     19 C2           0.9350    -1.5120    -0.2500 c          1 PNX       0.618000
     20 O2           0.2050    -2.4820    -0.3310 o          1 PNX      -0.554000
     21 HAA1        -6.4380     0.9130     2.2510 hc         1 PNX       0.059700
     22 HAA2        -7.7440     0.6730     1.0650 hc         1 PNX       0.059700
     23 HAA3        -6.8750    -0.7070     1.7500 hc         1 PNX       0.059700
     24 HAJ1        -4.2290    -0.5980     1.3980 hc         1 PNX       0.060200
     25 HAJ2        -4.1010     1.1300     1.3190 hc         1 PNX       0.060200
     26 HAH1        -3.4060     0.9790    -1.1010 hc         1 PNX       0.054700
     27 HAH2        -3.5460    -0.7650    -1.0260 hc         1 PNX       0.054700
     28 HAI1        -1.7980    -0.8240     0.7740 hc         1 PNX       0.049700
     29 HAI2        -1.6410     0.9220     0.6640 hc         1 PNX       0.049700
     30 HAK1        -0.9580     0.7180    -1.7270 h1         1 PNX       0.072200
     31 HAK2        -1.1270    -1.0210    -1.6390 h1         1 PNX       0.072200
     32 HAB1         3.4190     3.2560    -1.0240 h1         1 PNX       0.065367
     33 HAB2         2.9070     3.4860     0.6570 h1         1 PNX       0.065367
     34 HAB3         4.6280     3.3610     0.2640 h1         1 PNX       0.065367
     35 H8           5.5720     1.2110     0.8830 h5         1 PNX       0.063100
     36 HAC1         2.1550    -3.3480     1.4050 h1         1 PNX       0.059033
     37 HAC2         2.6260    -3.6500    -0.2780 h1         1 PNX       0.059033
     38 HAC3         3.7590    -2.8720     0.8340 h1         1 PNX       0.059033
@<TRIPOS>BOND
     1     1     2 1   
     2     1    21 1   
     3     1    22 1   
     4     1    23 1   
     5     2     3 2   
     6     2     4 1   
     7     4     5 1   
     8     4    24 1   
     9     4    25 1   
    10     5     6 1   
    11     5    26 1   
    12     5    27 1   
    13     6     7 1   
    14     6    28 1   
    15     6    29 1   
    16     7     8 1   
    17     7    30 1   
    18     7    31 1   
    19     8     9 1   
    20     8    19 1   
    21     9    10 2   
    22     9    11 1   
    23    11    12 1   
    24    11    16 2   
    25    12    13 1   
    26    12    14 1   
    27    13    32 1   
    28    13    33 1   
    29    13    34 1   
    30    14    15 2   
    31    14    35 1   
    32    15    16 1   
    33    16    17 1   
    34    17    18 1   
    35    17    19 1   
    36    18    36 1   
    37    18    37 1   
    38    18    38 1   
    39    19    20 2   
@<TRIPOS>SUBSTRUCTURE
     1 PNX         1 TEMP              0 ****  ****    0 ROOT
