@<TRIPOS>MOLECULE
PNX
   38    39     1     0     0
SMALL
No Charge or Current Charge


@<TRIPOS>ATOM
      1 CAA         -6.7130    -0.3890     0.7250 c3         1 PNX      -0.202100
      2 CAM         -5.8280     0.8440     0.5490 c          1 PNX       0.571100
      3 OAD         -6.2590     1.8760     0.0520 o          1 PNX      -0.521100
      4 CAJ         -4.3730     0.7210     1.0210 c3         1 PNX      -0.182400
      5 CAH         -3.4250     0.3700    -0.1500 c3         1 PNX      -0.062400
      6 CAI         -1.9520     0.2290     0.2910 c3         1 PNX      -0.096400
      7 CAK         -1.0040    -0.1200    -0.8760 c3         1 PNX       0.100000
      8 N1           0.4140    -0.2550    -0.4410 n          1 PNX      -0.373400
      9 C6           1.2260     0.8860    -0.4920 c          1 PNX       0.634600
     10 O6           0.8140     1.9830    -0.8400 o          1 PNX      -0.539000
     11 C5           2.6120     0.6570    -0.0870 cc         1 PNX      -0.355600
     12 N7           3.7040     1.5000     0.0040 na         1 PNX      -0.111500
     13 CAB          3.7410     2.9380    -0.3050 c3         1 PNX       0.061900
     14 C8           4.7650     0.7350     0.4430 cc         1 PNX       0.447400
     15 N9           4.3890    -0.5240     0.6260 nd         1 PNX      -0.705000
     16 C4           3.0540    -0.5680     0.2960 cd         1 PNX       0.438900
     17 N3           2.2210    -1.6580     0.3240 n          1 PNX      -0.359300
     18 CAC          2.7140    -2.9930     0.7410 c3         1 PNX       0.102300
     19 C2           0.8760    -1.5250    -0.0540 c          1 PNX       0.618000
     20 O2           0.1290    -2.4950    -0.0400 o          1 PNX      -0.554000
     21 HAA1        -6.7320    -0.6620     1.7870 hc         1 PNX       0.059700
     22 HAA2        -7.7240    -0.2460     0.3290 hc         1 PNX       0.059700
     23 HAA3        -6.2150    -1.2540     0.2730 hc         1 PNX       0.059700
     24 HAJ1        -4.2990    -0.0860     1.7600 hc         1 PNX       0.060200
     25 HAJ2        -4.0550     1.6740     1.4620 hc         1 PNX       0.060200
     26 HAH1        -3.4980     1.1490    -0.9210 hc         1 PNX       0.054700
     27 HAH2        -3.7540    -0.5690    -0.6150 hc         1 PNX       0.054700
     28 HAI1        -1.8770    -0.5510     1.0590 hc         1 PNX       0.049700
     29 HAI2        -1.6210     1.1670     0.7530 hc         1 PNX       0.049700
     30 HAK1        -1.0840     0.6550    -1.6490 h1         1 PNX       0.072200
     31 HAK2        -1.3400    -1.0530    -1.3490 h1         1 PNX       0.072200
     32 HAB1         3.4650     3.0960    -1.3540 h1         1 PNX       0.065367
     33 HAB2         3.0310     3.4700     0.3400 h1         1 PNX       0.065367
     34 HAB3         4.7500     3.3350    -0.1340 h1         1 PNX       0.065367
     35 H8           5.7540     1.1450     0.6040 h5         1 PNX       0.063100
     36 HAC1         2.1000    -3.3740     1.5670 h1         1 PNX       0.059033
     37 HAC2         2.6470    -3.6910    -0.1040 h1         1 PNX       0.059033
     38 HAC3         3.7570    -2.9500     1.0770 h1         1 PNX       0.059033
@<TRIPOS>BOND
     1     1     2 1   
     2     1    21 1   
     3     1    22 1   
     4     1    23 1   
     5     2     3 2   
     6     2     4 1   
     7     4     5 1   
     8     4    24 1   
     9     4    25 1   
    10     5     6 1   
    11     5    26 1   
    12     5    27 1   
    13     6     7 1   
    14     6    28 1   
    15     6    29 1   
    16     7     8 1   
    17     7    30 1   
    18     7    31 1   
    19     8     9 1   
    20     8    19 1   
    21     9    10 2   
    22     9    11 1   
    23    11    12 1   
    24    11    16 2   
    25    12    13 1   
    26    12    14 1   
    27    13    32 1   
    28    13    33 1   
    29    13    34 1   
    30    14    15 2   
    31    14    35 1   
    32    15    16 1   
    33    16    17 1   
    34    17    18 1   
    35    17    19 1   
    36    18    36 1   
    37    18    37 1   
    38    18    38 1   
    39    19    20 2   
@<TRIPOS>SUBSTRUCTURE
     1 PNX         1 TEMP              0 ****  ****    0 ROOT
