@<TRIPOS>MOLECULE
PNY
   40    39     1     0     0
SMALL
abcg2


@<TRIPOS>ATOM
      1 CAA         -4.3170    -1.0840     1.1860 c3         1 PNY       0.165600
      2 CAB         -3.0370    -1.6770    -0.8910 c3         1 PNY      -0.081100
      3 OAC          2.7070     0.6640     1.0940 o          1 PNY      -0.590100
      4 OAD         -2.3090     1.4030     1.4100 o          1 PNY      -0.610100
      5 OAE         -4.8020    -2.4050     1.2910 oh         1 PNY      -0.664000
      6 CAF         -4.0960    -0.7480    -0.2900 c3         1 PNY      -0.064000
      7 SAG          7.2080    -0.7320     0.2620 sh         1 PNY      -0.447800
      8 CAH          5.4420    -1.0130    -0.0960 c3         1 PNY       0.053600
      9 CAI         -5.4010    -0.9170    -1.0730 c3         1 PNY      -0.081100
     10 CAJ          4.8580     0.2750    -0.6640 c3         1 PNY       0.113000
     11 CAK          0.1240     1.1720    -0.0510 c3         1 PNY       0.106000
     12 CAL          1.0720     0.0930    -0.5600 c3         1 PNY      -0.181400
     13 NAM          3.4540     0.1440    -0.9700 ns         1 PNY      -0.508900
     14 CAO          2.4820     0.3300    -0.0610 c          1 PNY       0.599100
     15 CAP         -2.3190     1.0490     0.2370 c          1 PNY       0.569100
     16 CAQ         -3.6480     0.7310    -0.4520 c3         1 PNY       0.099300
     17 OAR         -4.6100     1.6450     0.0050 oh         1 PNY      -0.646000
     18 HAA         -5.0330    -0.3730     1.6210 h1         1 PNY       0.029700
     19 HAAA        -3.3760    -0.9730     1.7390 h1         1 PNY       0.029700
     20 HAB         -3.4080    -2.7000    -0.9350 hc         1 PNY       0.039867
     21 HABA        -2.7880    -1.3800    -1.9130 hc         1 PNY       0.039867
     22 HABB        -2.1150    -1.6910    -0.3090 hc         1 PNY       0.039867
     23 HOAE        -4.9000    -2.6090     2.2250 ho         1 PNY       0.445000
     24 HSAG         7.4870    -1.9550     0.7250 hs         1 PNY       0.217800
     25 HAH          5.3380    -1.8240    -0.8160 h1         1 PNY       0.066200
     26 HAHA         4.9230    -1.2900     0.8210 h1         1 PNY       0.066200
     27 HAI         -6.2050    -0.3050    -0.6640 hc         1 PNY       0.039867
     28 HAIA        -5.2620    -0.6330    -2.1190 hc         1 PNY       0.039867
     29 HAIB        -5.7330    -1.9550    -1.0590 hc         1 PNY       0.039867
     30 HAJ          4.9960     1.0940     0.0430 h1         1 PNY       0.070700
     31 HAJA         5.3760     0.5470    -1.5830 h1         1 PNY       0.070700
     32 HAK          0.1160     1.1840     1.0360 h1         1 PNY       0.074200
     33 HAKA         0.4620     2.1560    -0.3870 h1         1 PNY       0.074200
     34 HAL          0.7440    -0.8830    -0.1910 hc         1 PNY       0.061200
     35 HALA         1.0410     0.0460    -1.6510 hc         1 PNY       0.061200
     36 HNAM         3.2010    -0.1560    -1.8960 hn         1 PNY       0.312500
     37 HNAN        -1.3420     0.7320    -1.4990 hn         1 PNY       0.311500
     38 HAQ         -3.5340     0.9010    -1.5300 h1         1 PNY       0.069700
     39 HOAR        -4.4340     1.8160     0.9390 ho         1 PNY       0.467000
     40 NAN         -1.2230     0.9290    -0.5180 ns         1 PNY      -0.497900
@<TRIPOS>BOND
     1     1     5 1   
     2     1     6 1   
     3     1    18 1   
     4     1    19 1   
     5     2     6 1   
     6     2    20 1   
     7     2    21 1   
     8     2    22 1   
     9     3    14 2   
    10     4    15 2   
    11     5    23 1   
    12     6     9 1   
    13     6    16 1   
    14     7     8 1   
    15     7    24 1   
    16     8    10 1   
    17     8    25 1   
    18     8    26 1   
    19     9    27 1   
    20     9    28 1   
    21     9    29 1   
    22    10    13 1   
    23    10    30 1   
    24    10    31 1   
    25    11    12 1   
    26    11    32 1   
    27    11    33 1   
    28    11    40 1   
    29    12    14 1   
    30    12    34 1   
    31    12    35 1   
    32    13    14 1   
    33    13    36 1   
    34    15    16 1   
    35    15    40 1   
    36    16    17 1   
    37    16    38 1   
    38    17    39 1   
    39    37    40 1   
@<TRIPOS>SUBSTRUCTURE
     1 PNY         1 TEMP              0 ****  ****    0 ROOT
