@<TRIPOS>MOLECULE
PNY
   40    39     1     0     0
SMALL
No Charge or Current Charge


@<TRIPOS>ATOM
      1 CAA         -4.0910    -1.3740     1.0670 c3         1 PNY       0.165600
      2 CAB         -3.0260    -1.4940    -1.2530 c3         1 PNY      -0.081100
      3 OAC          2.8160     0.8740     1.1650 o          1 PNY      -0.590100
      4 OAD         -1.9390     1.0730     1.4560 o          1 PNY      -0.610100
      5 OAE         -4.4710    -2.7590     1.0200 oh         1 PNY      -0.664000
      6 CAF         -4.0540    -0.7330    -0.3620 c3         1 PNY      -0.064000
      7 SAG          7.2070    -0.9030     0.1480 sh         1 PNY      -0.447800
      8 CAH          5.3530    -0.9690     0.1270 c3         1 PNY       0.053600
      9 CAI         -5.4550    -0.8470    -1.0380 c3         1 PNY      -0.081100
     10 CAJ          4.7110     0.0550    -0.8310 c3         1 PNY       0.113000
     11 CAK          0.1950     1.4580    -0.4180 c3         1 PNY       0.106000
     12 CAL          0.9170     0.1290    -0.1260 c3         1 PNY      -0.181400
     13 NAM          3.2460    -0.0480    -0.8720 ns         1 PNY      -0.508900
     14 CAO          2.4020     0.3710     0.1320 c          1 PNY       0.599100
     15 CAP         -2.1940     1.0200     0.2590 c          1 PNY       0.569100
     16 CAQ         -3.6460     0.7870    -0.2790 c3         1 PNY       0.099300
     17 OAR         -4.6110     1.5350     0.5060 oh         1 PNY      -0.646000
     18 HAA         -4.7990    -0.8200     1.6970 h1         1 PNY       0.029700
     19 HAAA        -3.1010    -1.2850     1.5320 h1         1 PNY       0.029700
     20 HAB         -3.3440    -2.5280    -1.4340 hc         1 PNY       0.039867
     21 HABA        -2.9170    -1.0080    -2.2300 hc         1 PNY       0.039867
     22 HABB        -2.0370    -1.5330    -0.7800 hc         1 PNY       0.039867
     23 HOAE        -4.4830    -3.0840     1.9470 ho         1 PNY       0.445000
     24 HSAG         7.3830    -1.8960     1.0570 hs         1 PNY       0.217800
     25 HAH          5.0480    -1.9810    -0.1710 h1         1 PNY       0.066200
     26 HAHA         4.9900    -0.7920     1.1480 h1         1 PNY       0.066200
     27 HAI         -6.2370    -0.3970    -0.4140 hc         1 PNY       0.039867
     28 HAIA        -5.4630    -0.3380    -2.0100 hc         1 PNY       0.039867
     29 HAIB        -5.7320    -1.8940    -1.2100 hc         1 PNY       0.039867
     30 HAJ          4.9910     1.0710    -0.5200 h1         1 PNY       0.070700
     31 HAJA         5.1020    -0.1050    -1.8440 h1         1 PNY       0.070700
     32 HAK          0.2970     2.1350     0.4420 h1         1 PNY       0.074200
     33 HAKA         0.6580     1.9460    -1.2860 h1         1 PNY       0.074200
     34 HAL          0.4740    -0.3220     0.7680 hc         1 PNY       0.061200
     35 HALA         0.7840    -0.5380    -0.9860 hc         1 PNY       0.061200
     36 HNAM         2.8130    -0.4610    -1.6910 hn         1 PNY       0.312500
     37 HNAN        -1.5260     1.2240    -1.6700 hn         1 PNY       0.311500
     38 HAQ         -3.6540     1.1800    -1.3040 h1         1 PNY       0.069700
     39 HOAR        -4.2380     1.6130     1.4140 ho         1 PNY       0.467000
     40 NAN         -1.2270     1.2460    -0.7010 ns         1 PNY      -0.497900
@<TRIPOS>BOND
     1     1     5 1   
     2     1     6 1   
     3     1    18 1   
     4     1    19 1   
     5     2     6 1   
     6     2    20 1   
     7     2    21 1   
     8     2    22 1   
     9     3    14 2   
    10     4    15 2   
    11     5    23 1   
    12     6     9 1   
    13     6    16 1   
    14     7     8 1   
    15     7    24 1   
    16     8    10 1   
    17     8    25 1   
    18     8    26 1   
    19     9    27 1   
    20     9    28 1   
    21     9    29 1   
    22    10    13 1   
    23    10    30 1   
    24    10    31 1   
    25    11    12 1   
    26    11    32 1   
    27    11    33 1   
    28    11    40 1   
    29    12    14 1   
    30    12    34 1   
    31    12    35 1   
    32    13    14 1   
    33    13    36 1   
    34    15    16 1   
    35    15    40 1   
    36    16    17 1   
    37    16    38 1   
    38    17    39 1   
    39    37    40 1   
@<TRIPOS>SUBSTRUCTURE
     1 PNY         1 TEMP              0 ****  ****    0 ROOT
