@<TRIPOS>MOLECULE
PNZ
   19    19     1     0     0
SMALL
No Charge or Current Charge


@<TRIPOS>ATOM
      1 C6          -1.1010     0.0450     0.0660 ca         1 PNZ      -0.182200
      2 C7          -0.3950    -1.1750     0.1900 ca         1 PNZ      -0.045500
      3 C8           1.0060    -1.1760     0.3080 ca         1 PNZ      -0.117000
      4 C9           1.7260     0.0330     0.3050 ca         1 PNZ      -0.037300
      5 C4           1.0270     1.2480     0.1810 ca         1 PNZ      -0.117000
      6 C5          -0.3740     1.2590     0.0630 ca         1 PNZ      -0.045500
      7 N2           3.9150     0.1100    -0.8760 n8         1 PNZ      -1.001200
      8 C3           3.2450     0.0300     0.4390 c3         1 PNZ       0.190100
      9 N10         -2.5950     0.0510    -0.0600 no         1 PNZ       0.694200
     10 O11         -3.1700     1.1430    -0.1650 o          1 PNZ      -0.401500
     11 O12         -3.1880    -1.0360    -0.0520 o          1 PNZ      -0.401500
     12 H7          -0.9230    -2.1270     0.1960 ha         1 PNZ       0.150500
     13 H8           1.5340    -2.1230     0.4030 ha         1 PNZ       0.134500
     14 H4           1.5730     2.1890     0.1750 ha         1 PNZ       0.134500
     15 H5          -0.8860     2.2160    -0.0320 ha         1 PNZ       0.150500
     16 H2N1         4.9290     0.0150    -0.7410 hn         1 PNZ       0.403000
     17 H2N2         3.6650    -0.7220    -1.4240 hn         1 PNZ       0.403000
     18 H3C1         3.5700    -0.8890     0.9490 h1         1 PNZ       0.044200
     19 H3C2         3.5630     0.8850     1.0530 h1         1 PNZ       0.044200
@<TRIPOS>BOND
     1     1     2 ar  
     2     1     6 ar  
     3     1     9 1   
     4     2     3 ar  
     5     2    12 1   
     6     3     4 ar  
     7     3    13 1   
     8     4     5 ar  
     9     4     8 1   
    10     5     6 ar  
    11     5    14 1   
    12     6    15 1   
    13     7     8 1   
    14     7    16 1   
    15     7    17 1   
    16     8    18 1   
    17     8    19 1   
    18     9    10 1   
    19     9    11 1   
@<TRIPOS>SUBSTRUCTURE
     1 PNZ         1 TEMP              0 ****  ****    0 ROOT
