@<TRIPOS>MOLECULE
PNZ
   19    19     1     0     0
SMALL
abcg2


@<TRIPOS>ATOM
      1 C6          -1.0670     0.0260     0.0980 ca         1 PNZ      -0.182200
      2 C7          -0.4820    -1.1650     0.5120 ca         1 PNZ      -0.045500
      3 C8           0.8960    -1.2480     0.5510 ca         1 PNZ      -0.117000
      4 C9           1.6990    -0.1660     0.1890 ca         1 PNZ      -0.037300
      5 C4           1.0840     1.0130    -0.2230 ca         1 PNZ      -0.117000
      6 C5          -0.2960     1.1170    -0.2710 ca         1 PNZ      -0.045500
      7 N2           3.8950     0.7630    -0.4260 n8         1 PNZ      -1.001200
      8 C3           3.1970    -0.2990     0.2680 c3         1 PNZ       0.190100
      9 N10         -2.5140     0.1250     0.0430 no         1 PNZ       0.694200
     10 O11         -3.0030     1.1890    -0.2600 o          1 PNZ      -0.401500
     11 O12         -3.1640    -0.8610     0.3040 o          1 PNZ      -0.401500
     12 H7          -1.0820    -2.0160     0.7990 ha         1 PNZ       0.150500
     13 H8           1.3560    -2.1750     0.8690 ha         1 PNZ       0.134500
     14 H4           1.6910     1.8590    -0.5130 ha         1 PNZ       0.134500
     15 H5          -0.7520     2.0390    -0.5990 ha         1 PNZ       0.150500
     16 H2N1         4.8780     0.7230    -0.1940 hn         1 PNZ       0.403000
     17 H2N2         3.8380     0.6160    -1.4260 hn         1 PNZ       0.403000
     18 H3C1         3.4680    -1.3090    -0.0680 h1         1 PNZ       0.044200
     19 H3C2         3.4780    -0.2570     1.3250 h1         1 PNZ       0.044200
@<TRIPOS>BOND
     1     1     2 ar  
     2     1     6 ar  
     3     1     9 1   
     4     2     3 ar  
     5     2    12 1   
     6     3     4 ar  
     7     3    13 1   
     8     4     5 ar  
     9     4     8 1   
    10     5     6 ar  
    11     5    14 1   
    12     6    15 1   
    13     7     8 1   
    14     7    16 1   
    15     7    17 1   
    16     8    18 1   
    17     8    19 1   
    18     9    10 1   
    19     9    11 1   
@<TRIPOS>SUBSTRUCTURE
     1 PNZ         1 TEMP              0 ****  ****    0 ROOT
