@<TRIPOS>MOLECULE
PO0
   26    26     1     0     0
SMALL
No Charge or Current Charge


@<TRIPOS>ATOM
      1 N           -1.1800    -0.8060     1.5560 n8         1 PO0      -0.992200
      2 CA           0.1050    -0.1000     1.7190 c3         1 PO0       0.162500
      3 C            0.2700     0.4370     3.1640 c3         1 PO0      -0.067400
      4 CB           0.2300     1.0220     0.6590 c3         1 PO0      -0.074100
      5 CG           0.1010     0.5210    -0.7790 ca         1 PO0      -0.084300
      6 CD1         -1.0240     0.8620    -1.5570 ca         1 PO0      -0.110500
      7 CD2          1.1110    -0.2830    -1.3420 ca         1 PO0      -0.110500
      8 CE1         -1.1380     0.4000    -2.8800 ca         1 PO0      -0.107000
      9 CE2          0.9970    -0.7450    -2.6650 ca         1 PO0      -0.107000
     10 CZ          -0.1280    -0.4040    -3.4340 ca         1 PO0      -0.110000
     11 CM           0.3030    -0.6580     4.2530 c3         1 PO0      -0.081100
     12 H           -1.9410    -0.1520     1.7650 hn         1 PO0       0.394500
     13 HN2         -1.3050    -1.0000     0.5550 hn         1 PO0       0.394500
     14 HA           0.9110    -0.8250     1.5320 h1         1 PO0       0.059700
     15 HC1         -0.5390     1.1440     3.3900 hc         1 PO0       0.034200
     16 HC2          1.2060     1.0060     3.2240 hc         1 PO0       0.034200
     17 HB1         -0.5200     1.7970     0.8630 hc         1 PO0       0.051200
     18 HB2          1.2040     1.5120     0.7810 hc         1 PO0       0.051200
     19 HD1         -1.8110     1.4850    -1.1380 ha         1 PO0       0.110000
     20 HD2          1.9870    -0.5490    -0.7550 ha         1 PO0       0.110000
     21 HE1         -2.0090     0.6660    -3.4750 ha         1 PO0       0.113000
     22 HE2          1.7810    -1.3660    -3.0930 ha         1 PO0       0.113000
     23 HZ          -0.2160    -0.7610    -4.4580 ha         1 PO0       0.113000
     24 HM1          0.4780    -0.2090     5.2390 hc         1 PO0       0.035700
     25 HM2         -0.6460    -1.2050     4.2940 hc         1 PO0       0.035700
     26 HM3          1.1090    -1.3750     4.0570 hc         1 PO0       0.035700
@<TRIPOS>BOND
     1     1     2 1   
     2     1    12 1   
     3     1    13 1   
     4     2     3 1   
     5     2     4 1   
     6     2    14 1   
     7     3    11 1   
     8     3    15 1   
     9     3    16 1   
    10     4     5 1   
    11     4    17 1   
    12     4    18 1   
    13     5     6 ar  
    14     5     7 ar  
    15     6     8 ar  
    16     6    19 1   
    17     7     9 ar  
    18     7    20 1   
    19     8    10 ar  
    20     8    21 1   
    21     9    10 ar  
    22     9    22 1   
    23    10    23 1   
    24    11    24 1   
    25    11    25 1   
    26    11    26 1   
@<TRIPOS>SUBSTRUCTURE
     1 PO0         1 TEMP              0 ****  ****    0 ROOT
