@<TRIPOS>MOLECULE
PO0
   26    26     1     0     0
SMALL
bcc


@<TRIPOS>ATOM
      1 N           -1.2450    -0.7180     1.5750 n8         1 PO0      -0.881800
      2 CA           0.0660    -0.1000     1.6880 c3         1 PO0       0.162500
      3 C            0.2750     0.4280     3.1060 c3         1 PO0      -0.067400
      4 CB           0.3210     1.0230     0.6620 c3         1 PO0      -0.074100
      5 CG           0.1650     0.5530    -0.7550 ca         1 PO0      -0.084300
      6 CD1         -1.0090     0.7850    -1.4680 ca         1 PO0      -0.128500
      7 CD2          1.1790    -0.1790    -1.3730 ca         1 PO0      -0.128500
      8 CE1         -1.1670     0.3070    -2.7630 ca         1 PO0      -0.125000
      9 CE2          1.0260    -0.6620    -2.6650 ca         1 PO0      -0.125000
     10 CZ          -0.1500    -0.4200    -3.3660 ca         1 PO0      -0.128000
     11 CM           0.2340    -0.6530     4.1760 c3         1 PO0      -0.081100
     12 H           -1.9620    -0.0040     1.6510 hn         1 PO0       0.339300
     13 HN2         -1.3570    -1.1210     0.6520 hn         1 PO0       0.339300
     14 HA           0.8090    -0.8870     1.5090 h1         1 PO0       0.059700
     15 HC1         -0.4830     1.1910     3.3150 hc         1 PO0       0.034200
     16 HC2          1.2390     0.9450     3.1450 hc         1 PO0       0.034200
     17 HB1         -0.3750     1.8440     0.8610 hc         1 PO0       0.051200
     18 HB2          1.3300     1.4170     0.8140 hc         1 PO0       0.051200
     19 HD1         -1.8090     1.3530    -1.0060 ha         1 PO0       0.128000
     20 HD2          2.1010    -0.3720    -0.8350 ha         1 PO0       0.128000
     21 HE1         -2.0860     0.5030    -3.3010 ha         1 PO0       0.131000
     22 HE2          1.8250    -1.2270    -3.1270 ha         1 PO0       0.131000
     23 HZ          -0.2710    -0.7940    -4.3740 ha         1 PO0       0.131000
     24 HM1          0.3810    -0.2280     5.1690 hc         1 PO0       0.035700
     25 HM2         -0.7210    -1.1770     4.1720 hc         1 PO0       0.035700
     26 HM3          1.0200    -1.3930     4.0150 hc         1 PO0       0.035700
@<TRIPOS>BOND
     1     1     2 1   
     2     1    12 1   
     3     1    13 1   
     4     2     3 1   
     5     2     4 1   
     6     2    14 1   
     7     3    11 1   
     8     3    15 1   
     9     3    16 1   
    10     4     5 1   
    11     4    17 1   
    12     4    18 1   
    13     5     6 ar  
    14     5     7 ar  
    15     6     8 ar  
    16     6    19 1   
    17     7     9 ar  
    18     7    20 1   
    19     8    10 ar  
    20     8    21 1   
    21     9    10 ar  
    22     9    22 1   
    23    10    23 1   
    24    11    24 1   
    25    11    25 1   
    26    11    26 1   
@<TRIPOS>SUBSTRUCTURE
     1 PO0         1 TEMP              0 ****  ****    0 ROOT
