@<TRIPOS>MOLECULE
PO1
   58    61     1     0     0
SMALL
No Charge or Current Charge


@<TRIPOS>ATOM
      1 C1           4.3070    -0.2450     0.5030 ca         1 PO1       0.082100
      2 C2           3.6620     0.9720     0.7960 ca         1 PO1       0.146100
      3 O2           5.4220    -0.4870    -2.1490 o          1 PO1      -0.550500
      4 S1           6.3670    -0.1560    -1.0820 s6         1 PO1       1.388800
      5 O1           7.7260    -0.6910    -1.0460 o          1 PO1      -0.550500
      6 N1           6.5420     1.4560    -1.0810 n8         1 PO1      -1.052100
      7 O3           5.6790    -0.2990     0.3960 os         1 PO1      -0.423800
      8 C3           2.2550     1.0000     0.9190 ca         1 PO1      -0.193000
      9 C4           1.4840    -0.1750     0.7470 ca         1 PO1      -0.020300
     10 C5           2.1560    -1.4010     0.4950 ca         1 PO1      -0.094300
     11 C6           3.5580    -1.4230     0.3700 ca         1 PO1      -0.077000
     12 O4           4.4400     2.1070     0.9620 os         1 PO1      -0.330100
     13 C7           3.8760     3.3910     1.2820 c3         1 PO1       0.145900
     14 C8          -0.0600    -0.1410     0.9050 c6         1 PO1      -0.015400
     15 C9          -0.7370    -1.3890     0.2450 c6         1 PO1      -0.045700
     16 C10         -0.0710    -2.6760     0.7750 c6         1 PO1      -0.071400
     17 C11          1.4040    -2.7280     0.3310 c6         1 PO1      -0.026100
     18 C12         -0.7460     1.1840     0.4170 c6         1 PO1      -0.067400
     19 C13         -2.2920     1.1690     0.6150 c6         1 PO1      -0.062400
     20 C14         -2.9520    -0.0730    -0.0490 c5         1 PO1      -0.048000
     21 C15         -2.2680    -1.3550     0.5130 c5         1 PO1      -0.067700
     22 C16         -2.8830     0.1050    -1.6110 c3         1 PO1      -0.072100
     23 C17         -4.3910    -0.3970     0.4720 c5         1 PO1       0.219300
     24 C18         -4.6050    -1.8840     0.0160 c5         1 PO1      -0.103400
     25 C19         -3.1590    -2.4860    -0.0760 c5         1 PO1      -0.067400
     26 O5          -5.3360     0.4570    -0.2070 os         1 PO1      -0.561700
     27 S2          -6.8980     0.4690     0.2490 s6         1 PO1       1.398800
     28 O6          -7.0750    -0.1210     1.5750 o          1 PO1      -0.555500
     29 O7          -7.7470     0.1350    -0.8900 o          1 PO1      -0.555500
     30 N2          -6.9960     2.0690     0.3990 n8         1 PO1      -1.055100
     31 HN11         6.0410     1.6650    -0.2190 hn         1 PO1       0.487500
     32 HN12         7.5190     1.5090    -0.8110 hn         1 PO1       0.487500
     33 H3           1.7620     1.9320     1.1600 ha         1 PO1       0.119000
     34 H6           4.0700    -2.3610     0.1690 ha         1 PO1       0.140000
     35 H71          4.6700     4.1440     1.3680 h1         1 PO1       0.043367
     36 H72          3.1820     3.7190     0.4980 h1         1 PO1       0.043367
     37 H73          3.3390     3.3540     2.2380 h1         1 PO1       0.043367
     38 H8          -0.2490    -0.2050     1.9870 hc         1 PO1       0.056700
     39 H9          -0.5690    -1.3520    -0.8400 hc         1 PO1       0.061700
     40 H101        -0.1330    -2.7090     1.8720 hc         1 PO1       0.046200
     41 H102        -0.5900    -3.5700     0.4040 hc         1 PO1       0.046200
     42 H111         1.9200    -3.5230     0.8870 hc         1 PO1       0.054200
     43 H112         1.4470    -3.0240    -0.7270 hc         1 PO1       0.054200
     44 H121        -0.3620     2.0430     0.9790 hc         1 PO1       0.043700
     45 H122        -0.4920     1.3710    -0.6340 hc         1 PO1       0.043700
     46 H131        -2.5100     1.1690     1.6920 hc         1 PO1       0.043700
     47 H132        -2.7330     2.0950     0.2190 hc         1 PO1       0.043700
     48 H15         -2.3480    -1.3810     1.6090 hc         1 PO1       0.044700
     49 H161        -1.8560     0.1280    -1.9880 hc         1 PO1       0.040700
     50 H162        -3.4010    -0.6920    -2.1560 hc         1 PO1       0.040700
     51 H163        -3.3540     1.0460    -1.9170 hc         1 PO1       0.040700
     52 H17         -4.4640    -0.2750     1.5630 h1         1 PO1       0.058700
     53 H181        -5.2210    -2.4290     0.7410 hc         1 PO1       0.067200
     54 H182        -5.1170    -1.9520    -0.9510 hc         1 PO1       0.067200
     55 H191        -3.0680    -3.4170     0.4950 hc         1 PO1       0.050700
     56 H192        -2.8860    -2.7250    -1.1110 hc         1 PO1       0.050700
     57 HN21        -6.0790     2.2760     0.0120 hn         1 PO1       0.483000
     58 HN22        -7.6300     2.2510    -0.3720 hn         1 PO1       0.483000
@<TRIPOS>BOND
     1     1     2 ar  
     2     1     7 1   
     3     1    11 ar  
     4     2     8 ar  
     5     2    12 1   
     6     3     4 2   
     7     4     5 2   
     8     4     6 1   
     9     4     7 1   
    10     6    31 1   
    11     6    32 1   
    12     8     9 ar  
    13     8    33 1   
    14     9    10 ar  
    15     9    14 1   
    16    10    11 ar  
    17    10    17 1   
    18    11    34 1   
    19    12    13 1   
    20    13    35 1   
    21    13    36 1   
    22    13    37 1   
    23    14    15 1   
    24    14    18 1   
    25    14    38 1   
    26    15    16 1   
    27    15    21 1   
    28    15    39 1   
    29    16    17 1   
    30    16    40 1   
    31    16    41 1   
    32    17    42 1   
    33    17    43 1   
    34    18    19 1   
    35    18    44 1   
    36    18    45 1   
    37    19    20 1   
    38    19    46 1   
    39    19    47 1   
    40    20    21 1   
    41    20    22 1   
    42    20    23 1   
    43    21    25 1   
    44    21    48 1   
    45    22    49 1   
    46    22    50 1   
    47    22    51 1   
    48    23    24 1   
    49    23    26 1   
    50    23    52 1   
    51    24    25 1   
    52    24    53 1   
    53    24    54 1   
    54    25    55 1   
    55    25    56 1   
    56    26    27 1   
    57    27    28 2   
    58    27    29 2   
    59    27    30 1   
    60    30    57 1   
    61    30    58 1   
@<TRIPOS>SUBSTRUCTURE
     1 PO1         1 TEMP              0 ****  ****    0 ROOT
