@<TRIPOS>MOLECULE
PO1
   58    61     1     0     0
SMALL
bcc


@<TRIPOS>ATOM
      1 C1           4.1800    -0.1580     0.7360 ca         1 PO1       0.082100
      2 C2           3.5040     1.0440     0.9560 ca         1 PO1       0.146100
      3 O2           5.9980    -1.2850    -1.4120 o          1 PO1      -0.621300
      4 S1           6.4030    -0.1660    -0.5950 s6         1 PO1       1.530400
      5 O1           7.7640    -0.0780    -0.1220 o          1 PO1      -0.621300
      6 N1           5.8460     1.1800    -1.3230 n8         1 PO1      -0.941700
      7 O3           5.5640    -0.1510     0.7880 os         1 PO1      -0.423800
      8 C3           2.1170     1.0150     0.9620 ca         1 PO1      -0.211000
      9 C4           1.3990    -0.1680     0.7590 ca         1 PO1      -0.020300
     10 C5           2.0960    -1.3630     0.5650 ca         1 PO1      -0.094300
     11 C6           3.4890    -1.3340     0.5520 ca         1 PO1      -0.095000
     12 O4           4.2580     2.1350     1.1600 os         1 PO1      -0.306900
     13 C7           3.6060     3.3680     1.3930 c3         1 PO1       0.122700
     14 C8          -0.1180    -0.1520     0.8200 c6         1 PO1      -0.015400
     15 C9          -0.7260    -1.4070     0.1730 c6         1 PO1      -0.045700
     16 C10         -0.0660    -2.6490     0.7520 c6         1 PO1      -0.071400
     17 C11          1.4010    -2.6840     0.3580 c6         1 PO1      -0.026100
     18 C12         -0.7540     1.1300     0.2630 c6         1 PO1      -0.067400
     19 C13         -2.2820     1.1230     0.3730 c6         1 PO1      -0.062400
     20 C14         -2.8800    -0.1330    -0.2520 c5         1 PO1      -0.048000
     21 C15         -2.2260    -1.3650     0.3900 c5         1 PO1      -0.067700
     22 C16         -2.7300    -0.0980    -1.7770 c3         1 PO1      -0.072100
     23 C17         -4.3290    -0.4340     0.1260 c5         1 PO1       0.196100
     24 C18         -4.5150    -1.9310    -0.1700 c5         1 PO1      -0.103400
     25 C19         -3.0960    -2.5380    -0.0690 c5         1 PO1      -0.067400
     26 O5          -5.2360     0.4010    -0.6250 os         1 PO1      -0.538500
     27 S2          -6.6300     0.8140     0.0060 s6         1 PO1       1.540400
     28 O6          -7.2690    -0.3210     0.6370 o          1 PO1      -0.626300
     29 O7          -7.2980     1.4960    -1.0790 o          1 PO1      -0.626300
     30 N2          -6.1540     1.8150     1.2140 n8         1 PO1      -0.944700
     31 HN11         6.1930     2.0460    -0.9270 hn         1 PO1       0.432300
     32 HN12         5.9490     1.1520    -2.3320 hn         1 PO1       0.432300
     33 H3           1.5730     1.9310     1.1420 ha         1 PO1       0.137000
     34 H6           4.0430    -2.2550     0.4150 ha         1 PO1       0.158000
     35 H71          4.3900     4.1060     1.5380 h1         1 PO1       0.043367
     36 H72          2.9890     3.6710     0.5430 h1         1 PO1       0.043367
     37 H73          2.9820     3.3360     2.2900 h1         1 PO1       0.043367
     38 H8          -0.3900    -0.2010     1.8860 hc         1 PO1       0.056700
     39 H9          -0.5140    -1.3930    -0.9050 hc         1 PO1       0.061700
     40 H101        -0.1710    -2.6460     1.8430 hc         1 PO1       0.046200
     41 H102        -0.5590    -3.5540     0.3900 hc         1 PO1       0.046200
     42 H111         1.9280    -3.4640     0.9130 hc         1 PO1       0.054200
     43 H112         1.4810    -2.9640    -0.6980 hc         1 PO1       0.054200
     44 H121        -0.3880     2.0050     0.8040 hc         1 PO1       0.043700
     45 H122        -0.4430     1.2690    -0.7770 hc         1 PO1       0.043700
     46 H131        -2.5630     1.1660     1.4310 hc         1 PO1       0.043700
     47 H132        -2.6880     2.0250    -0.0940 hc         1 PO1       0.043700
     48 H15         -2.3770    -1.2650     1.4760 hc         1 PO1       0.044700
     49 H161        -1.6880    -0.0170    -2.0840 hc         1 PO1       0.040700
     50 H162        -3.1350    -0.9850    -2.2640 hc         1 PO1       0.040700
     51 H163        -3.2470     0.7690    -2.1910 hc         1 PO1       0.040700
     52 H17         -4.4580    -0.2290     1.1940 h1         1 PO1       0.058700
     53 H181        -5.2110    -2.3880     0.5330 hc         1 PO1       0.067200
     54 H182        -4.9330    -2.0680    -1.1680 hc         1 PO1       0.067200
     55 H191        -3.0600    -3.3700     0.6340 hc         1 PO1       0.050700
     56 H192        -2.7640    -2.9260    -1.0340 hc         1 PO1       0.050700
     57 HN21        -5.8610     2.7310     0.8920 hn         1 PO1       0.427800
     58 HN22        -6.8440     1.8880     1.9530 hn         1 PO1       0.427800
@<TRIPOS>BOND
     1     1     2 ar  
     2     1     7 1   
     3     1    11 ar  
     4     2     8 ar  
     5     2    12 1   
     6     3     4 2   
     7     4     5 2   
     8     4     6 1   
     9     4     7 1   
    10     6    31 1   
    11     6    32 1   
    12     8     9 ar  
    13     8    33 1   
    14     9    10 ar  
    15     9    14 1   
    16    10    11 ar  
    17    10    17 1   
    18    11    34 1   
    19    12    13 1   
    20    13    35 1   
    21    13    36 1   
    22    13    37 1   
    23    14    15 1   
    24    14    18 1   
    25    14    38 1   
    26    15    16 1   
    27    15    21 1   
    28    15    39 1   
    29    16    17 1   
    30    16    40 1   
    31    16    41 1   
    32    17    42 1   
    33    17    43 1   
    34    18    19 1   
    35    18    44 1   
    36    18    45 1   
    37    19    20 1   
    38    19    46 1   
    39    19    47 1   
    40    20    21 1   
    41    20    22 1   
    42    20    23 1   
    43    21    25 1   
    44    21    48 1   
    45    22    49 1   
    46    22    50 1   
    47    22    51 1   
    48    23    24 1   
    49    23    26 1   
    50    23    52 1   
    51    24    25 1   
    52    24    53 1   
    53    24    54 1   
    54    25    55 1   
    55    25    56 1   
    56    26    27 1   
    57    27    28 2   
    58    27    29 2   
    59    27    30 1   
    60    30    57 1   
    61    30    58 1   
@<TRIPOS>SUBSTRUCTURE
     1 PO1         1 TEMP              0 ****  ****    0 ROOT
