@<TRIPOS>MOLECULE
PO2
    3     2     1     0     0
SMALL
No Charge or Current Charge


@<TRIPOS>ATOM
      1 P            0.0390    -0.3660     0.0120 pe         1 PO2       0.207100
      2 O1           1.3440     0.4060    -0.0770 o          1 PO2      -0.551600
      3 O2          -1.2520     0.4340     0.0800 o          1 PO2      -0.655500
@<TRIPOS>BOND
     1     1     2 1   
     2     1     3 2   
@<TRIPOS>SUBSTRUCTURE
     1 PO2         1 TEMP              0 ****  ****    0 ROOT
