@<TRIPOS>MOLECULE
PO2
    3     2     1     0     0
SMALL
bcc


@<TRIPOS>ATOM
      1 P            0.0380    -0.3710     0.0120 pe         1 PO2       0.207100
      2 O1           1.3270     0.4090    -0.0760 o          1 PO2      -0.551600
      3 O2          -1.2350     0.4360     0.0790 o          1 PO2      -0.655500
@<TRIPOS>BOND
     1     1     2 1   
     2     1     3 2   
@<TRIPOS>SUBSTRUCTURE
     1 PO2         1 TEMP              0 ****  ****    0 ROOT
