@<TRIPOS>MOLECULE
PO3
    4     3     1     0     0
SMALL
No Charge or Current Charge


@<TRIPOS>ATOM
      1 P           20.5660    16.6650     4.2450 p3         1 PO3       0.458000
      2 O1          21.3960    17.0810     3.0810 o          1 PO3      -1.152667
      3 O2          21.0080    15.3920     4.8770 o          1 PO3      -1.152667
      4 O3          20.2990    17.7600     5.2180 o          1 PO3      -1.152667
@<TRIPOS>BOND
     1     1     2 1   
     2     1     3 1   
     3     1     4 1   
@<TRIPOS>SUBSTRUCTURE
     1 PO3         1 TEMP              0 ****  ****    0 ROOT
