@<TRIPOS>MOLECULE
PO3
    4     3     1     0     0
SMALL
bcc


@<TRIPOS>ATOM
      1 P           20.4120    16.6300     4.1800 p3         1 PO3       0.458000
      2 O1          21.4620    17.1030     3.0630 o          1 PO3      -1.152667
      3 O2          21.0630    15.3620     4.9130 o          1 PO3      -1.152667
      4 O3          20.3310    17.8040     5.2650 o          1 PO3      -1.152667
@<TRIPOS>BOND
     1     1     2 1   
     2     1     3 1   
     3     1     4 1   
@<TRIPOS>SUBSTRUCTURE
     1 PO3         1 TEMP              0 ****  ****    0 ROOT
