@<TRIPOS>MOLECULE
PO4
    5     4     1     0     0
SMALL
abcg2


@<TRIPOS>ATOM
      1 P           29.9710    23.5050    13.2480 p5         1 PO4       1.216000
      2 O1          31.1360    22.9300    14.1210 o          1 PO4      -1.054000
      3 O2          30.4340    24.8500    12.5900 o          1 PO4      -1.054000
      4 O3          29.6000    22.4670    12.1310 o          1 PO4      -1.054000
      5 O4          28.7150    23.7730    14.1480 o          1 PO4      -1.054000
@<TRIPOS>BOND
     1     1     2 1   
     2     1     3 1   
     3     1     4 1   
     4     1     5 1   
@<TRIPOS>SUBSTRUCTURE
     1 PO4         1 TEMP              0 ****  ****    0 ROOT
