@<TRIPOS>MOLECULE
PO4
    5     4     1     0     0
SMALL
No Charge or Current Charge


@<TRIPOS>ATOM
      1 P           29.9710    23.5050    13.2480 p5         1 PO4       1.216000
      2 O1          31.0680    22.9620    14.0750 o          1 PO4      -1.054000
      3 O2          30.4060    24.7710    12.6230 o          1 PO4      -1.054000
      4 O3          29.6220    22.5310    12.1940 o          1 PO4      -1.054000
      5 O4          28.7900    23.7560    14.0980 o          1 PO4      -1.054000
@<TRIPOS>BOND
     1     1     2 1   
     2     1     3 1   
     3     1     4 1   
     4     1     5 1   
@<TRIPOS>SUBSTRUCTURE
     1 PO4         1 TEMP              0 ****  ****    0 ROOT
