@<TRIPOS>MOLECULE
PO5
   66    70     1     0     0
SMALL
No Charge or Current Charge


@<TRIPOS>ATOM
      1 N1          -5.7400     1.5050     0.0510 na         1 PO5       0.469200
      2 C4          -4.8510    -1.0670    -0.0260 cc         1 PO5      -0.186000
      3 C5          -3.8660    -0.1130    -0.0210 cd         1 PO5      -0.007000
      4 C6          -4.3810     1.2140     0.0250 cd         1 PO5      -0.116000
      5 C7          -3.7630     2.4410     0.0420 cc         1 PO5      -0.361400
      6 C8          -4.8340     3.3710     0.0750 cc         1 PO5       0.381500
      7 C10         -2.3180     2.7150     0.0290 ca         1 PO5       0.282800
      8 C15         -1.8570     4.0450     0.0190 ca         1 PO5      -0.273000
      9 C17          2.1140     0.7450    -0.0550 ca         1 PO5       0.278000
     10 C20          4.9050     0.2990    -0.2690 ca         1 PO5       0.120100
     11 C21          4.3180     1.4210    -0.8740 ca         1 PO5      -0.148000
     12 C22          2.9310     1.6430    -0.7720 ca         1 PO5      -0.106500
     13 C24          6.9670    -0.9860     0.1790 c3         1 PO5       0.130600
     14 N2          -6.7350     0.5590     0.0450 nd         1 PO5      -0.542800
     15 C3          -6.2420    -0.6790     0.0160 cc         1 PO5       0.571900
     16 N9          -6.0480     2.8400     0.0820 nd         1 PO5      -0.528100
     17 N11         -1.4330     1.6990     0.0360 nb         1 PO5      -0.279000
     18 C12         -0.1280     2.0110     0.0200 ca         1 PO5       0.393900
     19 N13          0.4010     3.2470     0.0220 nb         1 PO5      -0.236000
     20 C14         -0.4720     4.2680     0.0160 ca         1 PO5       0.149900
     21 N16          0.7270     0.9170     0.0610 nu         1 PO5      -0.932900
     22 C18          2.7050    -0.3870     0.5350 ca         1 PO5      -0.106500
     23 C19          4.0920    -0.6130     0.4370 ca         1 PO5      -0.148000
     24 O23          6.2690     0.1330    -0.4020 os         1 PO5      -0.327100
     25 C25          8.4750    -0.8700    -0.1620 c3         1 PO5       0.172300
     26 O26          9.0760     0.2650     0.4820 oh         1 PO5      -0.629000
     27 C27          9.2820    -2.1190     0.2820 c3         1 PO5       0.127800
     28 N28         10.7580    -1.9020     0.3180 n3         1 PO5      -0.707600
     29 C29         11.4630    -2.9870     1.0380 c3         1 PO5       0.148600
     30 C30         11.3530    -1.6600    -1.0210 c3         1 PO5       0.148600
     31 N31         -7.1580    -1.7150     0.0110 nh         1 PO5      -0.759300
     32 C32         -7.0750    -2.8290     1.0160 c6         1 PO5       0.172300
     33 C33         -7.7590    -4.1280     0.4990 c6         1 PO5       0.144100
     34 O34         -9.1140    -3.8550     0.0710 os         1 PO5      -0.440000
     35 C35         -9.1750    -2.8770    -0.9950 c6         1 PO5       0.144100
     36 C36         -8.5410    -1.5280    -0.5440 c6         1 PO5       0.172300
     37 H4          -4.5910    -2.1170    -0.0810 ha         1 PO5       0.133000
     38 H5          -2.8160    -0.3760    -0.0570 ha         1 PO5       0.156000
     39 H8          -4.7590     4.4500     0.0970 h4         1 PO5       0.052800
     40 H15         -2.5400     4.8880     0.0150 ha         1 PO5       0.135000
     41 H21          4.9380     2.1200    -1.4290 ha         1 PO5       0.122000
     42 H22          2.5000     2.5040    -1.2710 ha         1 PO5       0.126500
     43 H24          6.8380    -1.0040     1.2690 h1         1 PO5       0.032700
     44 H24A         6.5800    -1.9290    -0.2310 h1         1 PO5       0.032700
     45 H14         -0.0570     5.2750     0.0120 h4         1 PO5       0.022100
     46 HN16         0.2290     0.0590     0.2970 hn         1 PO5       0.502000
     47 H18          2.0890    -1.0960     1.0830 ha         1 PO5       0.126500
     48 H19          4.5110    -1.4940     0.9130 ha         1 PO5       0.122000
     49 H25          8.5720    -0.7780    -1.2520 h1         1 PO5       0.081700
     50 HO26         9.9890    -0.0570     0.6790 ho         1 PO5       0.444000
     51 H27          8.9360    -2.3960     1.2880 h1         1 PO5       0.034200
     52 H27A         9.0340    -2.9590    -0.3810 h1         1 PO5       0.034200
     53 H29         11.3430    -3.9460     0.5160 h1         1 PO5       0.033533
     54 H29A        12.5360    -2.7690     1.1150 h1         1 PO5       0.033533
     55 H29B        11.0680    -3.0980     2.0560 h1         1 PO5       0.033533
     56 H30         10.9020    -0.7840    -1.5050 h1         1 PO5       0.033533
     57 H30A        12.4310    -1.4720    -0.9360 h1         1 PO5       0.033533
     58 H30B        11.2070    -2.5290    -1.6770 h1         1 PO5       0.033533
     59 H32         -6.0340    -3.0630     1.2790 h1         1 PO5       0.060450
     60 H32A        -7.5700    -2.5200     1.9480 h1         1 PO5       0.060450
     61 H33         -7.1880    -4.5410    -0.3450 h1         1 PO5       0.056950
     62 H33A        -7.7790    -4.8820     1.2980 h1         1 PO5       0.056950
     63 H35         -8.6380    -3.2660    -1.8730 h1         1 PO5       0.056950
     64 H35A       -10.2240    -2.7190    -1.2810 h1         1 PO5       0.056950
     65 H36         -9.1910    -1.0660     0.2140 h1         1 PO5       0.060450
     66 H36A        -8.5220    -0.8500    -1.4100 h1         1 PO5       0.060450
@<TRIPOS>BOND
     1     1     4 1   
     2     1    14 1   
     3     1    16 1   
     4     2     3 2   
     5     2    15 1   
     6     2    37 1   
     7     3     4 1   
     8     3    38 1   
     9     4     5 2   
    10     5     6 1   
    11     5     7 1   
    12     6    16 2   
    13     6    39 1   
    14     7     8 ar  
    15     7    17 ar  
    16     8    20 ar  
    17     8    40 1   
    18     9    12 ar  
    19     9    21 1   
    20     9    22 ar  
    21    10    11 ar  
    22    10    23 ar  
    23    10    24 1   
    24    11    12 ar  
    25    11    41 1   
    26    12    42 1   
    27    13    24 1   
    28    13    25 1   
    29    13    43 1   
    30    13    44 1   
    31    14    15 2   
    32    15    31 1   
    33    17    18 ar  
    34    18    19 ar  
    35    18    21 1   
    36    19    20 ar  
    37    20    45 1   
    38    21    46 1   
    39    22    23 ar  
    40    22    47 1   
    41    23    48 1   
    42    25    26 1   
    43    25    27 1   
    44    25    49 1   
    45    26    50 1   
    46    27    28 1   
    47    27    51 1   
    48    27    52 1   
    49    28    29 1   
    50    28    30 1   
    51    29    53 1   
    52    29    54 1   
    53    29    55 1   
    54    30    56 1   
    55    30    57 1   
    56    30    58 1   
    57    31    32 1   
    58    31    36 1   
    59    32    33 1   
    60    32    59 1   
    61    32    60 1   
    62    33    34 1   
    63    33    61 1   
    64    33    62 1   
    65    34    35 1   
    66    35    36 1   
    67    35    63 1   
    68    35    64 1   
    69    36    65 1   
    70    36    66 1   
@<TRIPOS>SUBSTRUCTURE
     1 PO5         1 TEMP              0 ****  ****    0 ROOT
