@<TRIPOS>MOLECULE
PO5
   66    70     1     0     0
SMALL
bcc


@<TRIPOS>ATOM
      1 N1          -5.5110     1.2700     0.1240 na         1 PO5       0.418500
      2 C4          -4.6940    -1.2490    -0.1420 cc         1 PO5      -0.269300
      3 C5          -3.7560    -0.2730    -0.1580 cd         1 PO5      -0.025000
      4 C6          -4.1730     1.0680    -0.0180 cd         1 PO5      -0.065300
      5 C7          -3.5940     2.3430    -0.0070 cc         1 PO5      -0.361400
      6 C8          -4.6890     3.2020     0.1470 cc         1 PO5       0.381500
      7 C10         -2.1910     2.6800    -0.1220 ca         1 PO5       0.611100
      8 C15         -1.7530     4.0060    -0.2190 ca         1 PO5      -0.421600
      9 C17          2.1920     0.8150    -0.2430 ca         1 PO5       0.139600
     10 C20          4.9800     0.4430    -0.2980 ca         1 PO5       0.120100
     11 C21          4.3950     1.5730    -0.8670 ca         1 PO5      -0.166000
     12 C22          3.0240     1.7600    -0.8490 ca         1 PO5      -0.124500
     13 C24          6.9610    -0.7550     0.2310 c3         1 PO5       0.107400
     14 N2          -6.4590     0.3460     0.1800 nd         1 PO5      -0.542800
     15 C3          -6.0780    -0.8990     0.0310 cc         1 PO5       0.637200
     16 N9          -5.8390     2.5500     0.2280 nd         1 PO5      -0.528100
     17 N11         -1.3240     1.6750    -0.1340 nb         1 PO5      -0.805000
     18 C12         -0.0260     1.9740    -0.2350 ca         1 PO5       0.919900
     19 N13          0.4870     3.1950    -0.3410 nb         1 PO5      -0.762000
     20 C14         -0.3930     4.1920    -0.3300 ca         1 PO5       0.478200
     21 N16          0.7970     0.8920    -0.2170 nu         1 PO5      -0.739300
     22 C18          2.7820    -0.3090     0.3290 ca         1 PO5      -0.124500
     23 C19          4.1560    -0.5030     0.3030 ca         1 PO5      -0.166000
     24 O23          6.3240     0.3460    -0.3830 os         1 PO5      -0.303900
     25 C25          8.4520    -0.6660    -0.0540 c3         1 PO5       0.149100
     26 O26          9.0140     0.5250     0.4400 oh         1 PO5      -0.566800
     27 C27          9.1290    -1.9150     0.5060 c3         1 PO5       0.127800
     28 N28         10.5700    -1.9010     0.3800 n3         1 PO5      -0.707600
     29 C29         11.1720    -2.9250     1.2060 c3         1 PO5       0.148600
     30 C30         11.0070    -2.0260    -0.9940 c3         1 PO5       0.148600
     31 N31         -7.0560    -1.8520     0.0120 nh         1 PO5      -0.759300
     32 C32         -6.7630    -3.2260     0.3970 c6         1 PO5       0.172300
     33 C33         -7.8220    -4.1620    -0.1530 c6         1 PO5       0.120900
     34 O34         -9.1170    -3.7770     0.2390 os         1 PO5      -0.393600
     35 C35         -9.4000    -2.4790    -0.2290 c6         1 PO5       0.120900
     36 C36         -8.4230    -1.4510     0.3100 c6         1 PO5       0.172300
     37 H4          -4.3920    -2.2750    -0.2730 ha         1 PO5       0.151000
     38 H5          -2.7080    -0.4950    -0.2840 ha         1 PO5       0.174000
     39 H8          -4.6860     4.2790     0.2090 h4         1 PO5       0.052800
     40 H15         -2.4340     4.8440    -0.2190 ha         1 PO5       0.153000
     41 H21          5.0250     2.3160    -1.3410 ha         1 PO5       0.140000
     42 H22          2.6100     2.6440    -1.3050 ha         1 PO5       0.144500
     43 H24          6.7800    -0.7520     1.3140 h1         1 PO5       0.032700
     44 H24A         6.5740    -1.7010    -0.1680 h1         1 PO5       0.032700
     45 H14          0.0170     5.1920    -0.4160 h4         1 PO5       0.022100
     46 HN16         0.3150     0.0260    -0.0300 hn         1 PO5       0.446800
     47 H18          2.1610    -1.0570     0.8070 ha         1 PO5       0.144500
     48 H19          4.5530    -1.3960     0.7650 ha         1 PO5       0.140000
     49 H25          8.5780    -0.6340    -1.1420 h1         1 PO5       0.081700
     50 HO26         9.2560     0.3910     1.3620 ho         1 PO5       0.405000
     51 H27          8.8870    -1.9860     1.5740 h1         1 PO5       0.034200
     52 H27A         8.6770    -2.8030     0.0300 h1         1 PO5       0.034200
     53 H29         10.8770    -3.9470     0.9210 h1         1 PO5       0.033533
     54 H29A        12.2590    -2.8640     1.1400 h1         1 PO5       0.033533
     55 H29B        10.8940    -2.7780     2.2510 h1         1 PO5       0.033533
     56 H30         10.6240    -1.2080    -1.6040 h1         1 PO5       0.033533
     57 H30A        12.0960    -1.9820    -1.0410 h1         1 PO5       0.033533
     58 H30B        10.6900    -2.9710    -1.4620 h1         1 PO5       0.033533
     59 H32         -5.8070    -3.5500    -0.0090 h1         1 PO5       0.060450
     60 H32A        -6.7080    -3.3170     1.4890 h1         1 PO5       0.060450
     61 H33         -7.7440    -4.1940    -1.2490 h1         1 PO5       0.056950
     62 H33A        -7.6430    -5.1680     0.2270 h1         1 PO5       0.056950
     63 H35         -9.3820    -2.4550    -1.3280 h1         1 PO5       0.056950
     64 H35A       -10.4080    -2.2200     0.0960 h1         1 PO5       0.056950
     65 H36         -8.5600    -1.3240     1.3920 h1         1 PO5       0.060450
     66 H36A        -8.6390    -0.4930    -0.1590 h1         1 PO5       0.060450
@<TRIPOS>BOND
     1     1     4 1   
     2     1    14 1   
     3     1    16 1   
     4     2     3 2   
     5     2    15 1   
     6     2    37 1   
     7     3     4 1   
     8     3    38 1   
     9     4     5 2   
    10     5     6 1   
    11     5     7 1   
    12     6    16 2   
    13     6    39 1   
    14     7     8 ar  
    15     7    17 ar  
    16     8    20 ar  
    17     8    40 1   
    18     9    12 ar  
    19     9    21 1   
    20     9    22 ar  
    21    10    11 ar  
    22    10    23 ar  
    23    10    24 1   
    24    11    12 ar  
    25    11    41 1   
    26    12    42 1   
    27    13    24 1   
    28    13    25 1   
    29    13    43 1   
    30    13    44 1   
    31    14    15 2   
    32    15    31 1   
    33    17    18 ar  
    34    18    19 ar  
    35    18    21 1   
    36    19    20 ar  
    37    20    45 1   
    38    21    46 1   
    39    22    23 ar  
    40    22    47 1   
    41    23    48 1   
    42    25    26 1   
    43    25    27 1   
    44    25    49 1   
    45    26    50 1   
    46    27    28 1   
    47    27    51 1   
    48    27    52 1   
    49    28    29 1   
    50    28    30 1   
    51    29    53 1   
    52    29    54 1   
    53    29    55 1   
    54    30    56 1   
    55    30    57 1   
    56    30    58 1   
    57    31    32 1   
    58    31    36 1   
    59    32    33 1   
    60    32    59 1   
    61    32    60 1   
    62    33    34 1   
    63    33    61 1   
    64    33    62 1   
    65    34    35 1   
    66    35    36 1   
    67    35    63 1   
    68    35    64 1   
    69    36    65 1   
    70    36    66 1   
@<TRIPOS>SUBSTRUCTURE
     1 PO5         1 TEMP              0 ****  ****    0 ROOT
