@<TRIPOS>MOLECULE
PO6
   20    20     1     0     0
SMALL
No Charge or Current Charge


@<TRIPOS>ATOM
      1 CF          -1.3550     1.1520    -0.0040 ca         1 PO6      -0.169000
      2 CD          -2.7370     1.4140     0.0010 ca         1 PO6      -0.075000
      3 CC          -3.6560     0.3510    -0.0040 ca         1 PO6      -0.146000
      4 CE          -3.1960    -0.9770    -0.0140 ca         1 PO6      -0.075000
      5 CG          -1.8150    -1.2390    -0.0190 ca         1 PO6      -0.169000
      6 CK          -0.8890    -0.1820    -0.0150 ca         1 PO6       0.138100
      7 OI           0.4530    -0.5010    -0.0200 os         1 PO6      -0.311100
      8 CH           1.4870     0.5110    -0.0160 c3         1 PO6       0.073600
      9 CJ           2.9090    -0.1010    -0.0240 c          1 PO6       0.606100
     10 OB           3.1450    -1.3010    -0.0330 o          1 PO6      -0.565100
     11 NA           3.9340     0.7840    -0.0210 nt         1 PO6      -0.617000
     12 H1          -0.6660     1.9910    -0.0010 ha         1 PO6       0.121500
     13 H2          -3.0960     2.4420     0.0090 ha         1 PO6       0.112500
     14 H3          -4.7240     0.5560     0.0010 ha         1 PO6       0.115000
     15 H4          -3.9080    -1.8000    -0.0170 ha         1 PO6       0.112500
     16 H5          -1.4590    -2.2660    -0.0270 ha         1 PO6       0.121500
     17 H6           1.4010     1.1550    -0.9010 h1         1 PO6       0.046700
     18 H7           1.4050     1.1430     0.8770 h1         1 PO6       0.046700
     19 H8           3.7500     1.7770    -0.0140 hn         1 PO6       0.316500
     20 H9           4.8830     0.4390    -0.0260 hn         1 PO6       0.316500
@<TRIPOS>BOND
     1     1     2 ar  
     2     1     6 ar  
     3     1    12 1   
     4     2     3 ar  
     5     2    13 1   
     6     3     4 ar  
     7     3    14 1   
     8     4     5 ar  
     9     4    15 1   
    10     5     6 ar  
    11     5    16 1   
    12     6     7 1   
    13     7     8 1   
    14     8     9 1   
    15     8    17 1   
    16     8    18 1   
    17     9    10 2   
    18     9    11 1   
    19    11    19 1   
    20    11    20 1   
@<TRIPOS>SUBSTRUCTURE
     1 PO6         1 TEMP              0 ****  ****    0 ROOT
