@<TRIPOS>MOLECULE
PO6
   20    20     1     0     0
SMALL
abcg2


@<TRIPOS>ATOM
      1 CF          -1.3030     1.1560    -0.0040 ca         1 PO6      -0.169000
      2 CD          -2.6740     1.3950     0.0030 ca         1 PO6      -0.075000
      3 CC          -3.5820     0.3490    -0.0030 ca         1 PO6      -0.146000
      4 CE          -3.1050    -0.9590    -0.0150 ca         1 PO6      -0.075000
      5 CG          -1.7450    -1.2140    -0.0220 ca         1 PO6      -0.169000
      6 CK          -0.8350    -0.1550    -0.0170 ca         1 PO6       0.138100
      7 OI           0.4710    -0.4990    -0.0240 os         1 PO6      -0.311100
      8 CH           1.4320     0.5190    -0.0160 c3         1 PO6       0.073600
      9 CJ           2.8080    -0.1300    -0.0200 c          1 PO6       0.606100
     10 OB           2.9630    -1.3380    -0.0180 o          1 PO6      -0.565100
     11 NA           3.8110     0.7570    -0.0240 nt         1 PO6      -0.617000
     12 H1          -0.6280     2.0010    -0.0000 ha         1 PO6       0.121500
     13 H2          -3.0250     2.4190     0.0130 ha         1 PO6       0.112500
     14 H3          -4.6460     0.5430     0.0030 ha         1 PO6       0.115000
     15 H4          -3.7990    -1.7890    -0.0190 ha         1 PO6       0.112500
     16 H5          -1.3760    -2.2320    -0.0320 ha         1 PO6       0.121500
     17 H6           1.3410     1.1710    -0.8940 h1         1 PO6       0.046700
     18 H7           1.3420     1.1580     0.8710 h1         1 PO6       0.046700
     19 H8           3.6490     1.7500    -0.0270 hn         1 PO6       0.316500
     20 H9           4.7680     0.4460    -0.0240 hn         1 PO6       0.316500
@<TRIPOS>BOND
     1     1     2 ar  
     2     1     6 ar  
     3     1    12 1   
     4     2     3 ar  
     5     2    13 1   
     6     3     4 ar  
     7     3    14 1   
     8     4     5 ar  
     9     4    15 1   
    10     5     6 ar  
    11     5    16 1   
    12     6     7 1   
    13     7     8 1   
    14     8     9 1   
    15     8    17 1   
    16     8    18 1   
    17     9    10 2   
    18     9    11 1   
    19    11    19 1   
    20    11    20 1   
@<TRIPOS>SUBSTRUCTURE
     1 PO6         1 TEMP              0 ****  ****    0 ROOT
