@<TRIPOS>MOLECULE
PO7
   45    47     1     0     0
SMALL
No Charge or Current Charge


@<TRIPOS>ATOM
      1 FAG          5.1190    -1.7430    -1.7920 f          1 PO7      -0.167000
      2 CAS          5.2270    -0.6650    -0.9830 ca         1 PO7       0.170000
      3 CAK          6.3820     0.1320    -1.0540 ca         1 PO7      -0.124000
      4 CAJ          6.5110     1.2580    -0.2200 ca         1 PO7      -0.119000
      5 CAR          5.4840     1.5740     0.6830 ca         1 PO7       0.161000
      6 FAF          5.6120     2.6470     1.4950 f          1 PO7      -0.170000
      7 CAM          4.3270     0.7800     0.7550 ca         1 PO7      -0.134000
      8 CAT          4.1830    -0.3430    -0.0880 ca         1 PO7      -0.073800
      9 CAH          2.9630    -1.1990    -0.0110 ce         1 PO7      -0.163200
     10 CAY          1.6360    -0.8240     0.0600 cd         1 PO7      -0.020600
     11 CAW          0.5300    -1.8380     0.1620 c          1 PO7       0.574200
     12 OAD          0.7010    -3.0480     0.1810 o          1 PO7      -0.525000
     13 NAQ         -0.7390    -1.3060     0.2330 ns         1 PO7      -0.414100
     14 NAP          1.2850     0.5210     0.0230 ns         1 PO7      -0.412100
     15 CAX          0.0160     1.0480     0.0910 c          1 PO7       0.581200
     16 OAE         -0.1490     2.2580     0.0480 o          1 PO7      -0.525000
     17 CAZ         -1.0960     0.0470     0.2220 cc         1 PO7      -0.067600
     18 CAI         -2.4060     0.4420     0.3180 cf         1 PO7      -0.099200
     19 CAU         -3.6020    -0.3470     0.6540 cd         1 PO7      -0.202800
     20 NAN         -3.6280    -1.5250     1.3890 na         1 PO7      -0.299500
     21 CAL         -4.9350    -1.9440     1.4850 cd         1 PO7       0.409400
     22 NAO         -5.7260    -1.1020     0.8450 nc         1 PO7      -0.676000
     23 CAV         -4.9270    -0.1160     0.3220 cc         1 PO7       0.308300
     24 CBA         -5.5410     1.0230    -0.5120 c3         1 PO7      -0.069300
     25 CAB         -4.7770     1.1980    -1.8560 c3         1 PO7      -0.080433
     26 CAC         -7.0320     0.7370    -0.8720 c3         1 PO7      -0.080433
     27 CAA         -5.4970     2.3460     0.2970 c3         1 PO7      -0.080433
     28 H1           7.1740    -0.1250    -1.7530 ha         1 PO7       0.141000
     29 H2           7.4020     1.8780    -0.2670 ha         1 PO7       0.141000
     30 H3           3.5570     1.0300     1.4800 ha         1 PO7       0.140000
     31 H4           3.1550    -2.2740    -0.0260 ha         1 PO7       0.228000
     32 H6          -1.4740    -2.0000     0.2470 hn         1 PO7       0.331500
     33 H7          -2.5590     1.5170     0.2170 ha         1 PO7       0.227000
     34 H8          -2.8490    -1.9760     1.8520 hn         1 PO7       0.357000
     35 H9          -5.2260    -2.8360     2.0290 h5         1 PO7       0.060100
     36 H11         -4.7370     0.2480    -2.4040 hc         1 PO7       0.037811
     37 H12         -5.2750     1.9360    -2.4960 hc         1 PO7       0.037811
     38 H13         -3.7500     1.5450    -1.7080 hc         1 PO7       0.037811
     39 H14         -7.6500     0.6520     0.0290 hc         1 PO7       0.037811
     40 H15         -7.4520     1.5460    -1.4820 hc         1 PO7       0.037811
     41 H16         -7.1270    -0.1950    -1.4430 hc         1 PO7       0.037811
     42 H17         -4.4720     2.6390     0.5440 hc         1 PO7       0.037811
     43 H18         -5.9500     3.1690    -0.2700 hc         1 PO7       0.037811
     44 H19         -6.0490     2.2420     1.2390 hc         1 PO7       0.037811
     45 H5           2.0110     1.2190    -0.0790 hn         1 PO7       0.338500
@<TRIPOS>BOND
     1     1     2 1   
     2     2     3 ar  
     3     2     8 ar  
     4     3     4 ar  
     5     3    28 1   
     6     4     5 ar  
     7     4    29 1   
     8     5     6 1   
     9     5     7 ar  
    10     7     8 ar  
    11     7    30 1   
    12     8     9 1   
    13     9    10 2   
    14     9    31 1   
    15    10    11 1   
    16    10    14 1   
    17    11    12 2   
    18    11    13 1   
    19    13    17 1   
    20    13    32 1   
    21    14    15 1   
    22    14    45 1   
    23    15    16 2   
    24    15    17 1   
    25    17    18 2   
    26    18    19 1   
    27    18    33 1   
    28    19    20 1   
    29    19    23 2   
    30    20    21 1   
    31    20    34 1   
    32    21    22 2   
    33    21    35 1   
    34    22    23 1   
    35    23    24 1   
    36    24    25 1   
    37    24    26 1   
    38    24    27 1   
    39    25    36 1   
    40    25    37 1   
    41    25    38 1   
    42    26    39 1   
    43    26    40 1   
    44    26    41 1   
    45    27    42 1   
    46    27    43 1   
    47    27    44 1   
@<TRIPOS>SUBSTRUCTURE
     1 PO7         1 TEMP              0 ****  ****    0 ROOT
