@<TRIPOS>MOLECULE
PO7
   45    47     1     0     0
SMALL
abcg2


@<TRIPOS>ATOM
      1 FAG          5.1680    -1.8140    -1.4680 f          1 PO7      -0.167000
      2 CAS          5.2060    -0.6960    -0.7300 ca         1 PO7       0.170000
      3 CAK          6.3590     0.0610    -0.7260 ca         1 PO7      -0.124000
      4 CAJ          6.4050     1.2220     0.0330 ca         1 PO7      -0.119000
      5 CAR          5.2890     1.5750     0.7660 ca         1 PO7       0.161000
      6 FAF          5.3310     2.6850     1.5170 f          1 PO7      -0.170000
      7 CAM          4.1350     0.8210     0.7630 ca         1 PO7      -0.134000
      8 CAT          4.0700    -0.3450    -0.0060 ca         1 PO7      -0.073800
      9 CAH          2.8900    -1.2060    -0.0290 ce         1 PO7      -0.163200
     10 CAY          1.6160    -0.7970    -0.1210 cd         1 PO7      -0.020600
     11 CAW          0.5300    -1.8130    -0.0710 c          1 PO7       0.574200
     12 OAD          0.7500    -3.0090    -0.0790 o          1 PO7      -0.525000
     13 NAQ         -0.7270    -1.3140    -0.0150 ns         1 PO7      -0.414100
     14 NAP          1.2360     0.5210    -0.3190 ns         1 PO7      -0.412100
     15 CAX         -0.0270     1.0190    -0.2850 c          1 PO7       0.581200
     16 OAE         -0.2490     2.2030    -0.4600 o          1 PO7      -0.525000
     17 CAZ         -1.0910     0.0300    -0.0080 cc         1 PO7      -0.067600
     18 CAI         -2.3470     0.4650     0.2030 cf         1 PO7      -0.099200
     19 CAU         -3.5020    -0.3030     0.5800 cd         1 PO7      -0.202800
     20 NAN         -3.4540    -1.4650     1.3180 na         1 PO7      -0.299500
     21 CAL         -4.7120    -1.8880     1.4960 cd         1 PO7       0.409400
     22 NAO         -5.5740    -1.0970     0.9050 nc         1 PO7      -0.676000
     23 CAV         -4.8520    -0.0970     0.3330 cc         1 PO7       0.308300
     24 CBA         -5.5130     1.0230    -0.4370 c3         1 PO7      -0.069300
     25 CAB         -4.8860     1.1630    -1.8300 c3         1 PO7      -0.080433
     26 CAC         -7.0060     0.7370    -0.6030 c3         1 PO7      -0.080433
     27 CAA         -5.3510     2.3410     0.3350 c3         1 PO7      -0.080433
     28 H1           7.2140    -0.2470    -1.3130 ha         1 PO7       0.141000
     29 H2           7.2980     1.8320     0.0550 ha         1 PO7       0.141000
     30 H3           3.3010     1.1180     1.3870 ha         1 PO7       0.140000
     31 H4           3.0480    -2.2760     0.0220 ha         1 PO7       0.228000
     32 H6          -1.4640    -2.0040    -0.0810 hn         1 PO7       0.331500
     33 H7          -2.4970     1.5270     0.0680 ha         1 PO7       0.227000
     34 H8          -2.6490    -1.8490     1.7890 hn         1 PO7       0.357000
     35 H9          -4.9480    -2.7720     2.0680 h5         1 PO7       0.060100
     36 H11         -4.9740     0.2360    -2.4000 hc         1 PO7       0.037811
     37 H12         -5.3920     1.9500    -2.3920 hc         1 PO7       0.037811
     38 H13         -3.8290     1.4270    -1.7830 hc         1 PO7       0.037811
     39 H14         -7.5190     0.6750     0.3560 hc         1 PO7       0.037811
     40 H15         -7.4680     1.5420    -1.1780 hc         1 PO7       0.037811
     41 H16         -7.1830    -0.1980    -1.1350 hc         1 PO7       0.037811
     42 H17         -4.3040     2.6280     0.4500 hc         1 PO7       0.037811
     43 H18         -5.8530     3.1550    -0.1920 hc         1 PO7       0.037811
     44 H19         -5.7870     2.2670     1.3330 hc         1 PO7       0.037811
     45 H5           1.9610     1.1950    -0.5310 hn         1 PO7       0.338500
@<TRIPOS>BOND
     1     1     2 1   
     2     2     3 ar  
     3     2     8 ar  
     4     3     4 ar  
     5     3    28 1   
     6     4     5 ar  
     7     4    29 1   
     8     5     6 1   
     9     5     7 ar  
    10     7     8 ar  
    11     7    30 1   
    12     8     9 1   
    13     9    10 2   
    14     9    31 1   
    15    10    11 1   
    16    10    14 1   
    17    11    12 2   
    18    11    13 1   
    19    13    17 1   
    20    13    32 1   
    21    14    15 1   
    22    14    45 1   
    23    15    16 2   
    24    15    17 1   
    25    17    18 2   
    26    18    19 1   
    27    18    33 1   
    28    19    20 1   
    29    19    23 2   
    30    20    21 1   
    31    20    34 1   
    32    21    22 2   
    33    21    35 1   
    34    22    23 1   
    35    23    24 1   
    36    24    25 1   
    37    24    26 1   
    38    24    27 1   
    39    25    36 1   
    40    25    37 1   
    41    25    38 1   
    42    26    39 1   
    43    26    40 1   
    44    26    41 1   
    45    27    42 1   
    46    27    43 1   
    47    27    44 1   
@<TRIPOS>SUBSTRUCTURE
     1 PO7         1 TEMP              0 ****  ****    0 ROOT
