@<TRIPOS>MOLECULE
PO8
   29    29     1     0     0
SMALL
bcc


@<TRIPOS>ATOM
      1 C1         -42.6940   -39.6810    -7.5570 c6         1 PO8       0.108100
      2 C2         -41.8970   -40.7340    -8.3300 c6         1 PO8       0.115100
      3 C3         -41.7610   -40.3990    -9.8170 c6         1 PO8       0.153100
      4 C4         -43.1330   -40.2210   -10.4590 c6         1 PO8       0.168100
      5 C5         -43.9320   -39.1450    -9.7060 c6         1 PO8      -0.128700
      6 C6         -45.2680   -38.8020   -10.3460 c3         1 PO8       0.122400
      7 C7         -44.0620   -39.4520    -8.2140 c6         1 PO8       0.110500
      8 O8         -40.5980   -40.8850    -7.8170 oh         1 PO8      -0.555800
      9 O9         -41.1020   -41.4410   -10.4920 oh         1 PO8      -0.572800
     10 O10        -42.9340   -39.8430   -11.8000 oh         1 PO8      -0.552800
     11 O11        -46.1080   -39.9470   -10.3240 oh         1 PO8      -0.657800
     12 N12        -44.9770   -40.6130    -7.9560 nz         1 PO8      -0.853600
     13 O1         -41.9700   -38.4820    -7.5660 oh         1 PO8      -0.534800
     14 H11        -42.8490   -40.0440    -6.5300 h1         1 PO8       0.042700
     15 H2         -42.4390   -41.6900    -8.2640 h1         1 PO8       0.018700
     16 H3         -41.2070   -39.4530    -9.9180 h1         1 PO8       0.091700
     17 H4         -43.6580   -41.1860   -10.4130 h1         1 PO8       0.036700
     18 H5         -43.3460   -38.2210    -9.7460 hc         1 PO8       0.129700
     19 H61        -45.1070   -38.4530   -11.3700 h1         1 PO8       0.064200
     20 H6         -45.7190   -37.9710    -9.7910 h1         1 PO8       0.064200
     21 H7         -44.5530   -38.6080    -7.7230 hx         1 PO8       0.093700
     22 HO8        -40.6340   -41.4120    -7.0130 ho         1 PO8       0.422000
     23 HO9        -40.2620   -41.5940   -10.0460 ho         1 PO8       0.438000
     24 HO10       -43.6730   -40.1600   -12.3270 ho         1 PO8       0.423000
     25 HO11       -46.9910   -39.6970   -10.6170 ho         1 PO8       0.451000
     26 HN11       -45.3340   -40.6020    -7.0000 hn         1 PO8       0.461133
     27 HN13       -45.7750   -40.5660    -8.6110 hn         1 PO8       0.461133
     28 H1         -42.3580   -37.8790    -6.9230 ho         1 PO8       0.421000
     29 HN12       -44.5460   -41.5260    -8.0960 hn         1 PO8       0.461133
@<TRIPOS>BOND
     1     1     2 1   
     2     1     7 1   
     3     1    13 1   
     4     1    14 1   
     5     2     3 1   
     6     2     8 1   
     7     2    15 1   
     8     3     4 1   
     9     3     9 1   
    10     3    16 1   
    11     4     5 1   
    12     4    10 1   
    13     4    17 1   
    14     5     6 1   
    15     5     7 1   
    16     5    18 1   
    17     6    11 1   
    18     6    19 1   
    19     6    20 1   
    20     7    12 1   
    21     7    21 1   
    22     8    22 1   
    23     9    23 1   
    24    10    24 1   
    25    11    25 1   
    26    12    26 1   
    27    12    27 1   
    28    12    29 1   
    29    13    28 1   
@<TRIPOS>SUBSTRUCTURE
     1 PO8         1 TEMP              0 ****  ****    0 ROOT
