@<TRIPOS>MOLECULE
PO8
   29    29     1     0     0
SMALL
No Charge or Current Charge


@<TRIPOS>ATOM
      1 C1         -42.6610   -39.8090    -7.5320 c6         1 PO8       0.131300
      2 C2         -41.9200   -40.8900    -8.3800 c6         1 PO8       0.138300
      3 C3         -41.8310   -40.4670    -9.8770 c6         1 PO8       0.176300
      4 C4         -43.2480   -40.1980   -10.4740 c6         1 PO8       0.191300
      5 C5         -43.9870   -39.0990    -9.6530 c6         1 PO8      -0.128700
      6 C6         -45.3790   -38.7030   -10.2500 c3         1 PO8       0.145600
      7 C7         -44.0630   -39.4700    -8.1380 c6         1 PO8       0.082300
      8 O8         -40.6000   -41.0990    -7.8470 oh         1 PO8      -0.678000
      9 O9         -41.1480   -41.4850   -10.6390 oh         1 PO8      -0.695000
     10 O10        -43.1040   -39.8020   -11.8450 oh         1 PO8      -0.675000
     11 O11        -46.3370   -39.7800   -10.2210 oh         1 PO8      -0.720000
     12 N12        -45.0300   -40.6570    -7.9620 nz         1 PO8      -0.991000
     13 O1         -41.8490   -38.6260    -7.4310 oh         1 PO8      -0.657000
     14 H11        -42.8220   -40.2220    -6.5250 h1         1 PO8       0.042700
     15 H2         -42.4870   -41.8290    -8.3190 h1         1 PO8       0.018700
     16 H3         -41.2630   -39.5250    -9.9250 h1         1 PO8       0.091700
     17 H4         -43.8300   -41.1290   -10.4210 h1         1 PO8       0.036700
     18 H5         -43.3870   -38.1810    -9.7310 hc         1 PO8       0.129700
     19 H61        -45.2280   -38.3560   -11.2830 h1         1 PO8       0.064200
     20 H6         -45.7620   -37.8430    -9.6830 h1         1 PO8       0.064200
     21 H7         -44.5200   -38.6420    -7.5820 hx         1 PO8       0.093700
     22 HO8        -40.3480   -40.2250    -7.4580 ho         1 PO8       0.521000
     23 HO9        -40.4550   -41.8370   -10.0270 ho         1 PO8       0.537000
     24 HO10       -42.4100   -40.4050   -12.2050 ho         1 PO8       0.522000
     25 HO11       -47.0780   -39.5210   -10.8200 ho         1 PO8       0.490000
     26 HN11       -45.4310   -40.7330    -7.0140 hn         1 PO8       0.516333
     27 HN13       -45.8340   -40.5400    -8.6130 hn         1 PO8       0.516333
     28 H1         -42.2410   -38.0540    -6.7290 ho         1 PO8       0.520000
     29 HN12       -44.6350   -41.5800    -8.1880 hn         1 PO8       0.516333
@<TRIPOS>BOND
     1     1     2 1   
     2     1     7 1   
     3     1    13 1   
     4     1    14 1   
     5     2     3 1   
     6     2     8 1   
     7     2    15 1   
     8     3     4 1   
     9     3     9 1   
    10     3    16 1   
    11     4     5 1   
    12     4    10 1   
    13     4    17 1   
    14     5     6 1   
    15     5     7 1   
    16     5    18 1   
    17     6    11 1   
    18     6    19 1   
    19     6    20 1   
    20     7    12 1   
    21     7    21 1   
    22     8    22 1   
    23     9    23 1   
    24    10    24 1   
    25    11    25 1   
    26    12    26 1   
    27    12    27 1   
    28    12    29 1   
    29    13    28 1   
@<TRIPOS>SUBSTRUCTURE
     1 PO8         1 TEMP              0 ****  ****    0 ROOT
