@<TRIPOS>MOLECULE
POA
   10     9     1     0     0
SMALL
No Charge or Current Charge


@<TRIPOS>ATOM
      1 C1           0.3400    -0.9250    -0.7780 c3         1 POA      -0.493400
      2 C2          -0.4670    -0.1910    -1.8110 c          1 POA       0.628900
      3 O2           0.0220     0.6360    -2.5750 o          1 POA      -0.665100
      4 O1P          0.8340     1.3450     0.5670 o          1 POA      -0.921833
      5 O2P          0.5390    -0.7090     1.8560 o          1 POA      -0.921833
      6 O3P         -1.3980     0.3480     0.8050 o          1 POA      -0.921833
      7 P            0.0610     0.0780     0.6860 p5         1 POA       1.296500
      8 H11          1.4070    -0.9700    -1.0190 hc         1 POA       0.033200
      9 H12         -0.1020    -1.9000    -0.5510 hc         1 POA       0.033200
     10 H2          -1.4720    -0.6220    -2.0150 h4         1 POA      -0.067800
@<TRIPOS>BOND
     1     1     2 1   
     2     1     7 1   
     3     1     8 1   
     4     1     9 1   
     5     2     3 2   
     6     2    10 1   
     7     4     7 1   
     8     5     7 1   
     9     6     7 1   
@<TRIPOS>SUBSTRUCTURE
     1 POA         1 TEMP              0 ****  ****    0 ROOT
