@<TRIPOS>MOLECULE
POA
   10     9     1     0     0
SMALL
bcc


@<TRIPOS>ATOM
      1 C1           0.3140    -0.9040    -0.7980 c3         1 POA      -0.335600
      2 C2          -0.3920    -0.2430    -1.8960 c          1 POA       0.628900
      3 O2           0.0960     0.5100    -2.7180 o          1 POA      -0.665100
      4 O1P          0.7620     1.4280     0.5330 o          1 POA      -0.921833
      5 O2P          0.6500    -0.7520     1.8940 o          1 POA      -0.921833
      6 O3P         -1.4930     0.2450     0.8780 o          1 POA      -0.921833
      7 P            0.0280     0.1180     0.8040 p5         1 POA       1.138700
      8 H11          1.3860    -0.9800    -0.9910 hc         1 POA       0.033200
      9 H12         -0.1050    -1.8980    -0.6290 hc         1 POA       0.033200
     10 H2          -1.4820    -0.4340    -1.9120 h4         1 POA      -0.067800
@<TRIPOS>BOND
     1     1     2 1   
     2     1     7 1   
     3     1     8 1   
     4     1     9 1   
     5     2     3 2   
     6     2    10 1   
     7     4     7 1   
     8     5     7 1   
     9     6     7 1   
@<TRIPOS>SUBSTRUCTURE
     1 POA         1 TEMP              0 ****  ****    0 ROOT
