@<TRIPOS>MOLECULE
POD
   52    56     1     0     0
SMALL
bcc


@<TRIPOS>ATOM
      1 O5          -2.8970    -1.6980     2.0500 o          1 POD      -0.561500
      2 C13         -2.9870    -0.8420     1.2150 c          1 POD       0.746600
      3 O4          -3.8450     0.1760     1.3430 os         1 POD      -0.404900
      4 C10         -2.2840    -0.7170    -0.1100 c5         1 POD      -0.178700
      5 C9          -2.4580     0.7480    -0.4410 c5         1 POD      -0.110700
      6 C12         -3.8070     1.0420     0.1910 c5         1 POD       0.145400
      7 C11         -0.8380    -1.1670    -0.2730 c6         1 POD       0.060900
      8 C5          -0.3940    -0.7590    -1.6670 ca         1 POD      -0.065300
      9 C6          -1.0450     0.2250    -2.4140 ca         1 POD      -0.111300
     10 C8          -2.3060     0.9410    -1.9270 c6         1 POD       0.221400
     11 O3          -2.2820     2.3210    -2.2020 oh         1 POD      -0.588800
     12 C7          -0.5620     0.5750    -3.6900 ca         1 POD      -0.111000
     13 C2           0.5460    -0.0720    -4.1600 ca         1 POD       0.055100
     14 C3           1.1940    -1.0450    -3.4150 ca         1 POD       0.061100
     15 C4           0.7480    -1.4070    -2.1750 ca         1 POD      -0.106000
     16 O2           1.2010     0.1040    -5.3340 os         1 POD      -0.319900
     17 C1           2.1740    -0.9310    -5.4040 c5         1 POD       0.327200
     18 O1           2.2660    -1.5020    -4.1050 os         1 POD      -0.314900
     19 C14          0.0890    -0.6250     0.8000 ca         1 POD      -0.024300
     20 C15          0.2830    -1.3670     1.9580 ca         1 POD      -0.234500
     21 C16          1.1030    -0.8810     2.9740 ca         1 POD       0.157600
     22 O6           1.3380    -1.5260     4.1300 os         1 POD      -0.299900
     23 C20          0.6880    -2.7610     4.3530 c3         1 POD       0.119700
     24 C17          1.7500     0.3470     2.8230 ca         1 POD       0.030100
     25 O7           2.5800     0.8060     3.7960 os         1 POD      -0.304900
     26 C21          1.9390     1.6110     4.7770 c3         1 POD       0.125700
     27 C18          1.5580     1.0880     1.6550 ca         1 POD       0.157600
     28 C19          0.7340     0.5970     0.6440 ca         1 POD      -0.234500
     29 O8           2.2190     2.2570     1.5910 os         1 POD      -0.299900
     30 C22          2.0670     3.0520     0.4330 c3         1 POD       0.119700
     31 H10         -2.8930    -1.3110    -0.8100 hc         1 POD       0.081700
     32 H9          -1.6890     1.3310     0.0790 hc         1 POD       0.100700
     33 H121        -3.9280     2.0660     0.5370 h1         1 POD       0.067700
     34 H122        -4.6390     0.7880    -0.4710 h1         1 POD       0.067700
     35 H11         -0.8080    -2.2590    -0.2130 hc         1 POD       0.077700
     36 H8          -3.1670     0.4710    -2.4240 h1         1 POD       0.038700
     37 HO3         -2.6030     2.4720    -3.0950 ho         1 POD       0.411000
     38 H7          -1.0490     1.3300    -4.2940 ha         1 POD       0.146000
     39 H4           1.2560    -2.1600    -1.5870 ha         1 POD       0.161000
     40 H11A         1.8550    -1.6930    -6.1220 h2         1 POD       0.067200
     41 H12          3.1380    -0.5130    -5.6920 h2         1 POD       0.067200
     42 H15         -0.2160    -2.3200     2.0610 ha         1 POD       0.147500
     43 H201         0.9890    -3.0940     5.3430 h1         1 POD       0.043533
     44 H202        -0.4010    -2.6600     4.3320 h1         1 POD       0.043533
     45 H203         0.9850    -3.5180     3.6230 h1         1 POD       0.043533
     46 H211         2.7020     1.9200     5.4890 h1         1 POD       0.033367
     47 H212         1.4890     2.5040     4.3370 h1         1 POD       0.033367
     48 H213         1.1660     1.0560     5.3140 h1         1 POD       0.033367
     49 H19          0.6060     1.1550    -0.2730 ha         1 POD       0.147500
     50 H221         2.6800     3.9370     0.5830 h1         1 POD       0.043533
     51 H222         2.4100     2.5360    -0.4670 h1         1 POD       0.043533
     52 H223         1.0300     3.3670     0.2850 h1         1 POD       0.043533
@<TRIPOS>BOND
     1     1     2 2   
     2     2     3 1   
     3     2     4 1   
     4     3     6 1   
     5     4     5 1   
     6     4     7 1   
     7     4    31 1   
     8     5     6 1   
     9     5    10 1   
    10     5    32 1   
    11     6    33 1   
    12     6    34 1   
    13     7     8 1   
    14     7    19 1   
    15     7    35 1   
    16     8     9 ar  
    17     8    15 ar  
    18     9    10 1   
    19     9    12 ar  
    20    10    11 1   
    21    10    36 1   
    22    11    37 1   
    23    12    13 ar  
    24    12    38 1   
    25    13    14 ar  
    26    13    16 1   
    27    14    15 ar  
    28    14    18 1   
    29    15    39 1   
    30    16    17 1   
    31    17    18 1   
    32    17    40 1   
    33    17    41 1   
    34    19    20 ar  
    35    19    28 ar  
    36    20    21 ar  
    37    20    42 1   
    38    21    22 1   
    39    21    24 ar  
    40    22    23 1   
    41    23    43 1   
    42    23    44 1   
    43    23    45 1   
    44    24    25 1   
    45    24    27 ar  
    46    25    26 1   
    47    26    46 1   
    48    26    47 1   
    49    26    48 1   
    50    27    28 ar  
    51    27    29 1   
    52    28    49 1   
    53    29    30 1   
    54    30    50 1   
    55    30    51 1   
    56    30    52 1   
@<TRIPOS>SUBSTRUCTURE
     1 POD         1 TEMP              0 ****  ****    0 ROOT
