@<TRIPOS>MOLECULE
POD
   52    56     1     0     0
SMALL
No Charge or Current Charge


@<TRIPOS>ATOM
      1 O5          -2.8710    -1.2360     2.2590 o          1 POD      -0.486000
      2 C13         -3.3000    -0.8470     1.1840 c          1 POD       0.671100
      3 O4          -4.2630     0.1310     1.1400 os         1 POD      -0.428100
      4 C10         -2.5070    -0.7260    -0.1290 c5         1 POD      -0.178700
      5 C9          -2.7020     0.7450    -0.5080 c5         1 POD      -0.110700
      6 C12         -4.1910     0.8680    -0.1070 c5         1 POD       0.168600
      7 C11         -1.0300    -1.1840    -0.2350 c6         1 POD       0.060900
      8 C5          -0.4610    -0.7710    -1.6100 ca         1 POD      -0.065300
      9 C6          -1.0520     0.2660    -2.4140 ca         1 POD      -0.111300
     10 C8          -2.3320     1.0260    -1.9790 c6         1 POD       0.244600
     11 O3          -2.1810     2.4360    -2.1590 oh         1 POD      -0.651000
     12 C7          -0.4770     0.5700    -3.6750 ca         1 POD      -0.093000
     13 C2           0.6700    -0.1210    -4.0800 ca         1 POD       0.055100
     14 C3           1.2380    -1.0860    -3.3040 ca         1 POD       0.061100
     15 C4           0.6980    -1.4410    -2.0650 ca         1 POD      -0.088000
     16 O2           1.3280     0.0550    -5.2540 os         1 POD      -0.343100
     17 C1           2.4750    -0.8590    -5.1210 c5         1 POD       0.373600
     18 O1           2.3310    -1.6430    -3.8840 os         1 POD      -0.338100
     19 C14         -0.1310    -0.6650     0.9070 ca         1 POD      -0.024300
     20 C15          0.1730    -1.5010     1.9920 ca         1 POD      -0.216500
     21 C16          1.0020    -1.0520     3.0410 ca         1 POD       0.157600
     22 O6           1.2970    -1.8650     4.1250 os         1 POD      -0.323100
     23 C20          0.7670    -3.1950     4.2660 c3         1 POD       0.142900
     24 C17          1.5580     0.2500     3.0090 ca         1 POD       0.030100
     25 O7           2.3660     0.6050     4.0920 os         1 POD      -0.328100
     26 C21          3.0160     1.8770     4.2580 c3         1 POD       0.148900
     27 C18          1.2680     1.1000     1.8980 ca         1 POD       0.157600
     28 C19          0.4310     0.6240     0.8630 ca         1 POD      -0.216500
     29 O8           1.8010     2.3770     1.8250 os         1 POD      -0.323100
     30 C22          1.5410     3.2800     0.7340 c3         1 POD       0.142900
     31 H10         -3.0690    -1.3070    -0.8720 hc         1 POD       0.081700
     32 H9          -2.0890     1.4080     0.1130 hc         1 POD       0.100700
     33 H121        -4.5160     1.9060     0.0440 h1         1 POD       0.067700
     34 H122        -4.8540     0.3920    -0.8420 h1         1 POD       0.067700
     35 H11         -1.0320    -2.2830    -0.1930 hc         1 POD       0.077700
     36 H8          -3.1520     0.6580    -2.6140 h1         1 POD       0.038700
     37 HO3         -2.0780     2.5860    -3.1220 ho         1 POD       0.450000
     38 H7          -0.9080     1.3210    -4.3310 ha         1 POD       0.128000
     39 H4           1.1680    -2.2190    -1.4680 ha         1 POD       0.143000
     40 H11A         2.5130    -1.5330    -5.9840 h2         1 POD       0.067200
     41 H12          3.3970    -0.2690    -5.0640 h2         1 POD       0.067200
     42 H15         -0.2560    -2.4980     2.0120 ha         1 POD       0.129500
     43 H201         1.1240    -3.6490     5.1980 h1         1 POD       0.043533
     44 H202        -0.3300    -3.1760     4.2960 h1         1 POD       0.043533
     45 H203         1.0870    -3.8330     3.4330 h1         1 POD       0.043533
     46 H211         3.5810     1.8910     5.1990 h1         1 POD       0.033367
     47 H212         3.7230     2.0660     3.4410 h1         1 POD       0.033367
     48 H213         2.2810     2.6910     4.2980 h1         1 POD       0.033367
     49 H19          0.2130     1.2480     0.0040 ha         1 POD       0.129500
     50 H221         2.0630     4.2310     0.8970 h1         1 POD       0.043533
     51 H222         1.8930     2.8580    -0.2150 h1         1 POD       0.043533
     52 H223         0.4670     3.4930     0.6510 h1         1 POD       0.043533
@<TRIPOS>BOND
     1     1     2 2   
     2     2     3 1   
     3     2     4 1   
     4     3     6 1   
     5     4     5 1   
     6     4     7 1   
     7     4    31 1   
     8     5     6 1   
     9     5    10 1   
    10     5    32 1   
    11     6    33 1   
    12     6    34 1   
    13     7     8 1   
    14     7    19 1   
    15     7    35 1   
    16     8     9 ar  
    17     8    15 ar  
    18     9    10 1   
    19     9    12 ar  
    20    10    11 1   
    21    10    36 1   
    22    11    37 1   
    23    12    13 ar  
    24    12    38 1   
    25    13    14 ar  
    26    13    16 1   
    27    14    15 ar  
    28    14    18 1   
    29    15    39 1   
    30    16    17 1   
    31    17    18 1   
    32    17    40 1   
    33    17    41 1   
    34    19    20 ar  
    35    19    28 ar  
    36    20    21 ar  
    37    20    42 1   
    38    21    22 1   
    39    21    24 ar  
    40    22    23 1   
    41    23    43 1   
    42    23    44 1   
    43    23    45 1   
    44    24    25 1   
    45    24    27 ar  
    46    25    26 1   
    47    26    46 1   
    48    26    47 1   
    49    26    48 1   
    50    27    28 ar  
    51    27    29 1   
    52    28    49 1   
    53    29    30 1   
    54    30    50 1   
    55    30    51 1   
    56    30    52 1   
@<TRIPOS>SUBSTRUCTURE
     1 POD         1 TEMP              0 ****  ****    0 ROOT
