@<TRIPOS>MOLECULE
POF
   60    64     1     0     0
SMALL
bcc


@<TRIPOS>ATOM
      1 O1           6.8260     1.1850     0.6830 o          1 POF      -0.602300
      2 O3           6.2470    -0.0600    -1.3950 os         1 POF      -0.465800
      3 O4          -4.5480     2.2480     0.8450 o          1 POF      -0.588500
      4 O2           8.5560     0.3900    -0.9670 o          1 POF      -0.602300
      5 C1           4.9160    -0.2150    -1.0370 ca         1 POF       0.108100
      6 C2           4.0980     0.8950    -0.9680 ca         1 POF      -0.116000
      7 N1           7.4770    -1.1980     0.6160 n8         1 POF      -0.949700
      8 C3           2.7430     0.7530    -0.6790 ca         1 POF      -0.051300
      9 C4           2.2130    -0.5200    -0.4360 ca         1 POF      -0.063300
     10 C5           3.0670    -1.6210    -0.5200 ca         1 POF      -0.111000
     11 S1           7.3440     0.1840    -0.2170 s6         1 POF       1.541400
     12 C6           4.4130    -1.4860    -0.8180 ca         1 POF      -0.162000
     13 C7           1.8810     1.9850    -0.6350 c6         1 POF      -0.036100
     14 C8           0.3980     1.6770    -0.7590 c6         1 POF      -0.073400
     15 C9           0.0230     0.5780     0.2280 c6         1 POF      -0.052700
     16 C10          0.7350    -0.7220    -0.1620 c6         1 POF      -0.014400
     17 C11         -1.4850     0.3280     0.3220 c6         1 POF      -0.046700
     18 C12         -1.8280    -0.7620     1.3520 c6         1 POF      -0.114000
     19 C13         -1.0520    -2.0410     1.0210 c6         1 POF      -0.063400
     20 C14          0.4460    -1.8000     0.8810 c6         1 POF      -0.072400
     21 C15         -1.5480    -0.3370     2.8050 c3         1 POF      -0.088100
     22 C16         -2.2780     1.5850     0.6280 c6         1 POF      -0.159400
     23 C17         -3.7410     1.3450     0.8720 c          1 POF       0.715500
     24 N2          -4.1660     0.0470     1.1120 n          1 POF      -0.520400
     25 C18         -3.3170    -1.0450     1.2730 c          1 POF       0.720500
     26 O5          -3.7760    -2.1590     1.3890 o          1 POF      -0.593500
     27 C19         -5.6140    -0.1630     1.1880 c3         1 POF       0.142300
     28 C20         -6.2680    -0.0590    -0.1610 ca         1 POF      -0.224600
     29 C21         -5.9640    -0.9430    -1.1900 ca         1 POF      -0.079000
     30 C22         -6.6020    -0.8000    -2.4120 ca         1 POF      -0.254300
     31 C23         -7.5280     0.2230    -2.5600 ca         1 POF       0.406200
     32 N3          -7.8310     1.0730    -1.5860 nb         1 POF      -0.667000
     33 C24         -7.2090     0.9300    -0.4230 ca         1 POF       0.428200
     34 H2           4.5050     1.8790    -1.1660 ha         1 POF       0.158000
     35 HN1          6.7240    -1.4050     1.2610 hn         1 POF       0.438800
     36 HN1A         7.7950    -2.0030     0.0890 hn         1 POF       0.438800
     37 H5           2.6820    -2.6190    -0.3620 ha         1 POF       0.137000
     38 H6           5.0500    -2.3570    -0.8990 ha         1 POF       0.138000
     39 H7           2.0550     2.5050     0.3130 hc         1 POF       0.059200
     40 H7A          2.1930     2.6790    -1.4190 hc         1 POF       0.059200
     41 H8          -0.1610     2.5940    -0.5720 hc         1 POF       0.049700
     42 H8A          0.1550     1.3570    -1.7780 hc         1 POF       0.049700
     43 H9           0.3860     0.8920     1.2180 hc         1 POF       0.058700
     44 H10          0.2850    -1.0550    -1.1100 hc         1 POF       0.060700
     45 H11         -1.8100    -0.0420    -0.6610 hc         1 POF       0.060700
     46 H13         -1.2320    -2.7970     1.7870 hc         1 POF       0.059200
     47 H13A        -1.4220    -2.4580     0.0780 hc         1 POF       0.059200
     48 H14          0.9070    -2.7490     0.6050 hc         1 POF       0.047700
     49 H14A         0.8920    -1.5100     1.8370 hc         1 POF       0.047700
     50 H15         -2.1300     0.5290     3.1200 hc         1 POF       0.047033
     51 H15A        -1.7870    -1.1530     3.4870 hc         1 POF       0.047033
     52 H15B        -0.4980    -0.0900     2.9530 hc         1 POF       0.047033
     53 H16         -1.8770     2.1020     1.5060 hc         1 POF       0.082700
     54 H16A        -2.2280     2.3000    -0.1930 hc         1 POF       0.082700
     55 H19         -5.7830    -1.1500     1.6090 h1         1 POF       0.076700
     56 H19A        -6.0430     0.5610     1.8790 h1         1 POF       0.076700
     57 H21         -5.2420    -1.7370    -1.0430 ha         1 POF       0.142000
     58 H22         -6.3910    -1.4690    -3.2350 ha         1 POF       0.141000
     59 H23         -8.0450     0.3590    -3.5030 h4         1 POF       0.018100
     60 H24         -7.4680     1.6400     0.3550 h4         1 POF       0.026100
@<TRIPOS>BOND
     1     1    11 2   
     2     2     5 1   
     3     2    11 1   
     4     3    23 2   
     5     4    11 2   
     6     5     6 ar  
     7     5    12 ar  
     8     6     8 ar  
     9     6    34 1   
    10     7    11 1   
    11     7    35 1   
    12     7    36 1   
    13     8     9 ar  
    14     8    13 1   
    15     9    10 ar  
    16     9    16 1   
    17    10    12 ar  
    18    10    37 1   
    19    12    38 1   
    20    13    14 1   
    21    13    39 1   
    22    13    40 1   
    23    14    15 1   
    24    14    41 1   
    25    14    42 1   
    26    15    16 1   
    27    15    17 1   
    28    15    43 1   
    29    16    20 1   
    30    16    44 1   
    31    17    18 1   
    32    17    22 1   
    33    17    45 1   
    34    18    19 1   
    35    18    21 1   
    36    18    25 1   
    37    19    20 1   
    38    19    46 1   
    39    19    47 1   
    40    20    48 1   
    41    20    49 1   
    42    21    50 1   
    43    21    51 1   
    44    21    52 1   
    45    22    23 1   
    46    22    53 1   
    47    22    54 1   
    48    23    24 1   
    49    24    25 1   
    50    24    27 1   
    51    25    26 2   
    52    27    28 1   
    53    27    55 1   
    54    27    56 1   
    55    28    29 ar  
    56    28    33 ar  
    57    29    30 ar  
    58    29    57 1   
    59    30    31 ar  
    60    30    58 1   
    61    31    32 ar  
    62    31    59 1   
    63    32    33 ar  
    64    33    60 1   
@<TRIPOS>SUBSTRUCTURE
     1 POF         1 TEMP              0 ****  ****    0 ROOT
