@<TRIPOS>MOLECULE
POF
   60    64     1     0     0
SMALL
No Charge or Current Charge


@<TRIPOS>ATOM
      1 O1           6.8570    -0.3340     1.3100 o          1 POF      -0.531500
      2 O3           6.2650    -0.4560    -1.1570 os         1 POF      -0.465800
      3 O4          -4.4680     2.6620     0.5600 o          1 POF      -0.513000
      4 O2           7.5340     1.5680    -0.2700 o          1 POF      -0.531500
      5 C1           4.9140    -0.4800    -0.9210 ca         1 POF       0.108100
      6 C2           4.1840     0.7090    -0.7630 ca         1 POF      -0.098000
      7 N1           8.5740    -0.6840    -0.4240 n8         1 POF      -1.060100
      8 C3           2.7930     0.6700    -0.5420 ca         1 POF      -0.051300
      9 C4           2.1160    -0.5750    -0.4650 ca         1 POF      -0.063300
     10 C5           2.8640    -1.7610    -0.6670 ca         1 POF      -0.093000
     11 S1           7.2530     0.1570    -0.0080 s6         1 POF       1.399800
     12 C6           4.2500    -1.7110    -0.8920 ca         1 POF      -0.144000
     13 C7           2.0570     2.0020    -0.3740 c6         1 POF      -0.036100
     14 C8           0.5200     1.8900    -0.4320 c6         1 POF      -0.073400
     15 C9           0.0270     0.6860     0.4120 c6         1 POF      -0.052700
     16 C10          0.5810    -0.6260    -0.2430 c6         1 POF      -0.014400
     17 C11         -1.5380     0.5960     0.5370 c6         1 POF      -0.046700
     18 C12         -1.9960    -0.6190     1.4270 c6         1 POF      -0.114000
     19 C13         -1.4540    -1.8970     0.7170 c6         1 POF      -0.063400
     20 C14          0.0880    -1.8820     0.5390 c6         1 POF      -0.072400
     21 C15         -1.4820    -0.5460     2.9120 c3         1 POF      -0.088100
     22 C16         -2.2570     1.8840     0.9980 c6         1 POF      -0.159400
     23 C17         -3.7730     1.7150     0.8980 c          1 POF       0.573000
     24 N2          -4.3190     0.4440     1.1520 n          1 POF      -0.386400
     25 C18         -3.5540    -0.6790     1.5320 c          1 POF       0.578000
     26 O5          -4.0900    -1.6500     2.0500 o          1 POF      -0.518000
     27 C19         -5.7990     0.3020     1.0840 c3         1 POF       0.142300
     28 C20         -6.2820    -0.0500    -0.3130 ca         1 POF      -0.159300
     29 C21         -6.1870    -1.3680    -0.7980 ca         1 POF      -0.061000
     30 C22         -6.6440    -1.6300    -2.1000 ca         1 POF      -0.171000
     31 C23         -7.1750    -0.5800    -2.8670 ca         1 POF       0.340900
     32 N3          -7.2700     0.6890    -2.4080 nb         1 POF      -0.667000
     33 C24         -6.8280     0.9410    -1.1530 ca         1 POF       0.362900
     34 H2           4.6920     1.6680    -0.8230 ha         1 POF       0.140000
     35 HN1          8.6580    -1.2610     0.4070 hn         1 POF       0.494000
     36 HN1A         8.1360    -1.3020    -1.1020 hn         1 POF       0.494000
     37 H5           2.3870    -2.7350    -0.6640 ha         1 POF       0.119000
     38 H6           4.8080    -2.6310    -1.0430 ha         1 POF       0.120000
     39 H7           2.3460     2.4370     0.5920 hc         1 POF       0.059200
     40 H7A          2.3950     2.7150    -1.1390 hc         1 POF       0.059200
     41 H8           0.1090     2.8390    -0.0670 hc         1 POF       0.049700
     42 H8A          0.1890     1.7830    -1.4750 hc         1 POF       0.049700
     43 H9           0.4610     0.7990     1.4130 hc         1 POF       0.058700
     44 H10          0.1390    -0.6970    -1.2470 hc         1 POF       0.060700
     45 H11         -1.9100     0.4110    -0.4830 hc         1 POF       0.060700
     46 H13         -1.7370    -2.7930     1.2870 hc         1 POF       0.059200
     47 H13A        -1.9320    -2.0090    -0.2670 hc         1 POF       0.059200
     48 H14          0.3560    -2.7990     0.0010 hc         1 POF       0.047700
     49 H14A         0.5910    -1.9410     1.5130 hc         1 POF       0.047700
     50 H15         -1.9200     0.2970     3.4580 hc         1 POF       0.047033
     51 H15A        -1.7560    -1.4530     3.4660 hc         1 POF       0.047033
     52 H15B        -0.3940    -0.4550     2.9930 hc         1 POF       0.047033
     53 H16         -2.0140     2.0700     2.0500 hc         1 POF       0.082700
     54 H16A        -1.9850     2.7820     0.4320 hc         1 POF       0.082700
     55 H19         -6.1480    -0.4660     1.7870 h1         1 POF       0.076700
     56 H19A        -6.2770     1.2340     1.4140 h1         1 POF       0.076700
     57 H21         -5.7720    -2.1650    -0.1850 ha         1 POF       0.124000
     58 H22         -6.5900    -2.6320    -2.5150 ha         1 POF       0.123000
     59 H23         -7.5360    -0.7590    -3.8790 h4         1 POF       0.018100
     60 H24         -6.9160     1.9720    -0.8110 h4         1 POF       0.026100
@<TRIPOS>BOND
     1     1    11 2   
     2     2     5 1   
     3     2    11 1   
     4     3    23 2   
     5     4    11 2   
     6     5     6 ar  
     7     5    12 ar  
     8     6     8 ar  
     9     6    34 1   
    10     7    11 1   
    11     7    35 1   
    12     7    36 1   
    13     8     9 ar  
    14     8    13 1   
    15     9    10 ar  
    16     9    16 1   
    17    10    12 ar  
    18    10    37 1   
    19    12    38 1   
    20    13    14 1   
    21    13    39 1   
    22    13    40 1   
    23    14    15 1   
    24    14    41 1   
    25    14    42 1   
    26    15    16 1   
    27    15    17 1   
    28    15    43 1   
    29    16    20 1   
    30    16    44 1   
    31    17    18 1   
    32    17    22 1   
    33    17    45 1   
    34    18    19 1   
    35    18    21 1   
    36    18    25 1   
    37    19    20 1   
    38    19    46 1   
    39    19    47 1   
    40    20    48 1   
    41    20    49 1   
    42    21    50 1   
    43    21    51 1   
    44    21    52 1   
    45    22    23 1   
    46    22    53 1   
    47    22    54 1   
    48    23    24 1   
    49    24    25 1   
    50    24    27 1   
    51    25    26 2   
    52    27    28 1   
    53    27    55 1   
    54    27    56 1   
    55    28    29 ar  
    56    28    33 ar  
    57    29    30 ar  
    58    29    57 1   
    59    30    31 ar  
    60    30    58 1   
    61    31    32 ar  
    62    31    59 1   
    63    32    33 ar  
    64    33    60 1   
@<TRIPOS>SUBSTRUCTURE
     1 POF         1 TEMP              0 ****  ****    0 ROOT
