@<TRIPOS>MOLECULE
POJ
   62    65     1     0     0
SMALL
No Charge or Current Charge


@<TRIPOS>ATOM
      1 C14          3.3320    14.1120    -6.1950 ca         1 POJ      -0.339500
      2 C11          1.2400    14.4590    -4.3230 ca         1 POJ       0.047000
      3 C12          2.3690    13.6830    -4.0020 ca         1 POJ      -0.180500
      4 C13          3.4120    13.5070    -4.9270 ca         1 POJ       0.016500
      5 C01         -4.4330    15.6770     0.2830 ca         1 POJ      -0.027500
      6 C02         -5.3150    16.4870    -0.4630 ca         1 POJ      -0.229300
      7 C03         -4.9690    16.8280    -1.7870 ca         1 POJ      -0.027500
      8 C04         -3.7590    16.3830    -2.3470 ca         1 POJ      -0.163000
      9 C05         -2.8710    15.5840    -1.5970 ca         1 POJ       0.024000
     10 C06         -3.2250    15.2350    -0.2810 ca         1 POJ      -0.163000
     11 C08         -0.9640    15.2910    -3.2960 c          1 POJ       0.673100
     12 C15          2.2060    14.8870    -6.5290 ca         1 POJ       0.016500
     13 C16          1.1670    15.0590    -5.5980 ca         1 POJ      -0.180500
     14 C21          3.1190    11.6570    -7.8500 c5         1 POJ       0.205800
     15 C22          2.6630    10.9470    -9.1360 c5         1 POJ      -0.085400
     16 C23          3.9850    10.8420    -9.9440 c5         1 POJ      -0.095400
     17 C24          4.9420    11.9010    -9.2950 c5         1 POJ       0.225500
     18 C25          5.7760    12.7420   -10.3260 c3         1 POJ       0.166800
     19 C27          7.8050    13.0730   -11.7090 c6         1 POJ       0.125800
     20 C28          9.0690    12.4130   -12.3340 c6         1 POJ       0.152600
     21 C30          7.9550    10.2840   -12.4340 c6         1 POJ       0.152600
     22 C31          6.6680    10.8930   -11.8000 c6         1 POJ       0.125800
     23 F33         -7.6350    16.0810    -0.0990 f          1 POJ      -0.114667
     24 F34         -6.5650    17.1160     1.4860 f          1 POJ      -0.114667
     25 F35         -7.0360    18.1550    -0.3580 f          1 POJ      -0.114667
     26 N07         -1.6320    15.0940    -2.0950 ns         1 POJ      -0.159000
     27 N09          0.2290    14.5840    -3.3310 ns         1 POJ      -0.161000
     28 N18          4.0170    12.6770    -8.4200 n3         1 POJ      -0.750500
     29 N26          6.9710    12.0890   -10.9470 n3         1 POJ      -0.712600
     30 O10         -1.3730    16.0020    -4.2050 o          1 POJ      -0.588100
     31 O19          5.8180    13.3060    -6.7280 o          1 POJ      -0.534500
     32 O20          4.7310    15.1040    -8.2120 o          1 POJ      -0.534500
     33 O29          8.6880    11.2930   -13.1660 os         1 POJ      -0.449000
     34 S17          4.6500    13.8850    -7.4000 sy         1 POJ       1.172600
     35 H1           2.4440    13.2090    -3.0260 ha         1 POJ       0.134000
     36 H2           4.2730    12.8980    -4.6530 ha         1 POJ       0.138500
     37 H3          -4.6800    15.3850     1.3030 ha         1 POJ       0.132000
     38 H4          -5.6380    17.4370    -2.3910 ha         1 POJ       0.132000
     39 H5          -3.5370    16.6690    -3.3700 ha         1 POJ       0.135500
     40 H6          -2.5600    14.6140     0.3140 ha         1 POJ       0.135500
     41 H7           2.1280    15.3530    -7.5110 ha         1 POJ       0.138500
     42 H8           0.3140    15.6590    -5.8950 ha         1 POJ       0.134000
     43 H9           2.2580    12.0790    -7.3150 h1         1 POJ       0.057200
     44 H10          3.6510    10.9770    -7.1690 h1         1 POJ       0.057200
     45 H11          2.2070     9.9720    -8.9370 hc         1 POJ       0.057700
     46 H12          1.9220    11.5540    -9.6700 hc         1 POJ       0.057700
     47 H13          4.4110     9.8360    -9.8680 hc         1 POJ       0.054200
     48 H14          3.8050    11.0370   -11.0080 hc         1 POJ       0.054200
     49 H15          5.6730    11.3780    -8.6610 h1         1 POJ       0.067700
     50 H16          6.1360    13.6340    -9.8000 h1         1 POJ       0.050200
     51 H17          5.0920    13.1040   -11.1060 h1         1 POJ       0.050200
     52 H18          8.1270    13.8910   -11.0490 h1         1 POJ       0.040700
     53 H19          7.2120    13.5270   -12.5170 h1         1 POJ       0.040700
     54 H20          9.6130    13.1480   -12.9440 h1         1 POJ       0.051450
     55 H21          9.7430    12.0630   -11.5380 h1         1 POJ       0.051450
     56 H22          7.6850     9.4670   -13.1180 h1         1 POJ       0.051450
     57 H23          8.6000     9.8690   -11.6460 h1         1 POJ       0.051450
     58 H24          6.1930    10.1030   -11.2050 h1         1 POJ       0.040700
     59 H25          5.9700    11.1640   -12.6060 h1         1 POJ       0.040700
     60 H26         -1.1490    14.4850    -1.4480 hn         1 POJ       0.151000
     61 H27          0.4200    14.0530    -2.4920 hn         1 POJ       0.152000
     62 C32         -6.6390    16.9630     0.1440 c3         1 POJ       0.362300
@<TRIPOS>BOND
     1     1     4 ar  
     2     1    12 ar  
     3     1    34 1   
     4     2     3 ar  
     5     2    13 ar  
     6     2    27 1   
     7     3     4 ar  
     8     3    35 1   
     9     4    36 1   
    10     5     6 ar  
    11     5    10 ar  
    12     5    37 1   
    13     6     7 ar  
    14     6    62 1   
    15     7     8 ar  
    16     7    38 1   
    17     8     9 ar  
    18     8    39 1   
    19     9    10 ar  
    20     9    26 1   
    21    10    40 1   
    22    11    26 1   
    23    11    27 1   
    24    11    30 2   
    25    12    13 ar  
    26    12    41 1   
    27    13    42 1   
    28    14    15 1   
    29    14    28 1   
    30    14    43 1   
    31    14    44 1   
    32    15    16 1   
    33    15    45 1   
    34    15    46 1   
    35    16    17 1   
    36    16    47 1   
    37    16    48 1   
    38    17    18 1   
    39    17    28 1   
    40    17    49 1   
    41    18    29 1   
    42    18    50 1   
    43    18    51 1   
    44    19    20 1   
    45    19    29 1   
    46    19    52 1   
    47    19    53 1   
    48    20    33 1   
    49    20    54 1   
    50    20    55 1   
    51    21    22 1   
    52    21    33 1   
    53    21    56 1   
    54    21    57 1   
    55    22    29 1   
    56    22    58 1   
    57    22    59 1   
    58    23    62 1   
    59    24    62 1   
    60    25    62 1   
    61    26    60 1   
    62    27    61 1   
    63    28    34 1   
    64    31    34 2   
    65    32    34 2   
@<TRIPOS>SUBSTRUCTURE
     1 POJ         1 TEMP              0 ****  ****    0 ROOT
