@<TRIPOS>MOLECULE
POJ
   62    65     1     0     0
SMALL
bcc


@<TRIPOS>ATOM
      1 C14          2.8670    15.3390    -7.7250 ca         1 POJ      -0.339500
      2 C11          1.4710    15.0140    -5.3310 ca         1 POJ       0.139600
      3 C12          2.8200    14.6510    -5.4310 ca         1 POJ      -0.198500
      4 C13          3.5140    14.8100    -6.6120 ca         1 POJ      -0.001500
      5 C01         -3.1070    14.2520     0.2570 ca         1 POJ      -0.045500
      6 C02         -4.1730    15.0560    -0.1390 ca         1 POJ      -0.229300
      7 C03         -4.0840    15.7490    -1.3360 ca         1 POJ      -0.045500
      8 C04         -2.9570    15.6540    -2.1390 ca         1 POJ      -0.181000
      9 C05         -1.8880    14.8470    -1.7460 ca         1 POJ       0.116600
     10 C06         -1.9830    14.1500    -0.5350 ca         1 POJ      -0.181000
     11 C08         -0.4110    15.1360    -3.7200 c          1 POJ       0.807100
     12 C15          1.5350    15.7210    -7.6330 ca         1 POJ      -0.001500
     13 C16          0.8350    15.5630    -6.4490 ca         1 POJ      -0.198500
     14 C21          2.0940    13.7070   -10.4950 c5         1 POJ       0.205800
     15 C22          2.1720    12.2130   -10.7580 c5         1 POJ      -0.085400
     16 C23          3.1060    11.7300    -9.6570 c5         1 POJ      -0.095400
     17 C24          4.1850    12.8160    -9.5810 c5         1 POJ       0.225500
     18 C25          5.4040    12.5860   -10.4790 c3         1 POJ       0.166800
     19 C27          7.6650    11.8700   -10.6790 c6         1 POJ       0.125800
     20 C28          8.8330    11.2080    -9.9750 c6         1 POJ       0.129400
     21 C30          7.3860     9.9460    -8.6800 c6         1 POJ       0.129400
     22 C31          6.1790    10.5760    -9.3480 c6         1 POJ       0.125800
     23 F33         -6.0100    13.9560     0.8320 f          1 POJ      -0.235967
     24 F34         -5.0660    15.4980     1.9870 f          1 POJ      -0.235967
     25 F35         -6.2810    16.0200     0.2880 f          1 POJ      -0.235967
     26 N07         -0.7090    14.6820    -2.4620 ns         1 POJ      -0.485100
     27 N09          0.8570    14.7840    -4.1090 ns         1 POJ      -0.487100
     28 N18          3.4540    14.0210   -10.0380 n3         1 POJ      -0.750500
     29 N26          6.5010    11.9140    -9.8110 n3         1 POJ      -0.712600
     30 O10         -1.1790    15.7760    -4.4100 o          1 POJ      -0.588100
     31 O19          5.1340    15.5510    -9.0100 o          1 POJ      -0.605300
     32 O20          3.0420    16.4720   -10.0660 o          1 POJ      -0.605300
     33 O29          8.5030     9.9080    -9.5400 os         1 POJ      -0.402600
     34 S17          3.7070    15.4490    -9.2730 sy         1 POJ       1.314200
     35 H1           3.3330    14.2430    -4.5690 ha         1 POJ       0.152000
     36 H2           4.5590    14.5320    -6.6510 ha         1 POJ       0.156500
     37 H3          -3.1400    13.6960     1.1850 ha         1 POJ       0.150000
     38 H4          -4.8920    16.3840    -1.6720 ha         1 POJ       0.150000
     39 H5          -2.9260    16.2130    -3.0580 ha         1 POJ       0.153500
     40 H6          -1.1650    13.5180    -0.2110 ha         1 POJ       0.153500
     41 H7           1.0240    16.1540    -8.4810 ha         1 POJ       0.156500
     42 H8          -0.1960    15.8690    -6.4100 ha         1 POJ       0.152000
     43 H9           1.8350    14.2880   -11.3780 h1         1 POJ       0.057200
     44 H10          1.3470    13.9070    -9.7170 h1         1 POJ       0.057200
     45 H11          1.1900    11.7450   -10.7220 hc         1 POJ       0.057700
     46 H12          2.5970    12.0170   -11.7450 hc         1 POJ       0.057700
     47 H13          2.5670    11.6820    -8.7080 hc         1 POJ       0.054200
     48 H14          3.5160    10.7420    -9.8570 hc         1 POJ       0.054200
     49 H15          4.5370    12.9370    -8.5520 h1         1 POJ       0.067700
     50 H16          5.7740    13.5600   -10.8030 h1         1 POJ       0.050200
     51 H17          5.0890    12.0510   -11.3940 h1         1 POJ       0.050200
     52 H18          7.9500    12.8890   -10.9530 h1         1 POJ       0.040700
     53 H19          7.4500    11.3320   -11.6190 h1         1 POJ       0.040700
     54 H20          9.6800    11.1220   -10.6570 h1         1 POJ       0.051450
     55 H21          9.1470    11.8290    -9.1240 h1         1 POJ       0.051450
     56 H22          7.1570     8.9190    -8.3920 h1         1 POJ       0.051450
     57 H23          7.6270    10.5070    -7.7660 h1         1 POJ       0.051450
     58 H24          5.3760    10.6180    -8.6100 h1         1 POJ       0.040700
     59 H25          5.8300     9.9300   -10.1740 h1         1 POJ       0.040700
     60 H26         -0.0240    14.0980    -2.0070 hn         1 POJ       0.317500
     61 H27          1.4360    14.3090    -3.4310 hn         1 POJ       0.318500
     62 C32         -5.3810    15.1390     0.7330 c3         1 POJ       0.726200
@<TRIPOS>BOND
     1     1     4 ar  
     2     1    12 ar  
     3     1    34 1   
     4     2     3 ar  
     5     2    13 ar  
     6     2    27 1   
     7     3     4 ar  
     8     3    35 1   
     9     4    36 1   
    10     5     6 ar  
    11     5    10 ar  
    12     5    37 1   
    13     6     7 ar  
    14     6    62 1   
    15     7     8 ar  
    16     7    38 1   
    17     8     9 ar  
    18     8    39 1   
    19     9    10 ar  
    20     9    26 1   
    21    10    40 1   
    22    11    26 1   
    23    11    27 1   
    24    11    30 2   
    25    12    13 ar  
    26    12    41 1   
    27    13    42 1   
    28    14    15 1   
    29    14    28 1   
    30    14    43 1   
    31    14    44 1   
    32    15    16 1   
    33    15    45 1   
    34    15    46 1   
    35    16    17 1   
    36    16    47 1   
    37    16    48 1   
    38    17    18 1   
    39    17    28 1   
    40    17    49 1   
    41    18    29 1   
    42    18    50 1   
    43    18    51 1   
    44    19    20 1   
    45    19    29 1   
    46    19    52 1   
    47    19    53 1   
    48    20    33 1   
    49    20    54 1   
    50    20    55 1   
    51    21    22 1   
    52    21    33 1   
    53    21    56 1   
    54    21    57 1   
    55    22    29 1   
    56    22    58 1   
    57    22    59 1   
    58    23    62 1   
    59    24    62 1   
    60    25    62 1   
    61    26    60 1   
    62    27    61 1   
    63    28    34 1   
    64    31    34 2   
    65    32    34 2   
@<TRIPOS>SUBSTRUCTURE
     1 POJ         1 TEMP              0 ****  ****    0 ROOT
