@<TRIPOS>MOLECULE
POK
   30    29     1     0     0
SMALL
No Charge or Current Charge


@<TRIPOS>ATOM
      1 N           53.1380    21.9550    -3.4630 n8         1 POK      -0.893800
      2 CA          52.5590    20.7660    -4.1980 c3         1 POK       0.012500
      3 C           53.1330    19.3360    -3.8000 c          1 POK       0.897600
      4 O           54.3440    19.1420    -3.8710 o          1 POK      -0.842800
      5 CB          52.6410    21.0130    -5.7310 c3         1 POK      -0.037400
      6 CG          51.8890    19.9650    -6.5860 c3         1 POK      -0.120400
      7 CD          51.9580    20.2710    -8.0950 c3         1 POK       0.213800
      8 NE          51.2750    19.2330    -8.8750 nu         1 POK      -0.901200
      9 CZ          49.9470    19.0590    -8.8740 c2         1 POK       0.828100
     10 NH1         49.4770    17.8970    -8.8600 n2         1 POK      -0.913100
     11 NH2         49.3270    20.0720    -9.4980 nu         1 POK      -0.812200
     12 CAA         47.8680    20.3750    -9.3230 c3         1 POK       0.067800
     13 CMA         47.3730    20.5460    -7.8300 c          1 POK       0.912600
     14 OMA         47.9440    21.3560    -7.1030 o          1 POK      -0.838800
     15 OMB         46.4230    19.8730    -7.4370 o          1 POK      -0.838800
     16 H1          53.0150    21.8190    -2.4540 hn         1 POK       0.317800
     17 H2          54.1550    21.9550    -3.5920 hn         1 POK       0.317800
     18 H4          51.4920    20.7380    -3.9410 h1         1 POK       0.055700
     19 O1          52.3680    18.5110    -3.3110 o          1 POK      -0.842800
     20 H6          53.6940    21.0340    -6.0390 hc         1 POK       0.011200
     21 H7          52.2270    22.0040    -5.9560 hc         1 POK       0.011200
     22 H8          50.8380    19.9330    -6.2720 hc         1 POK       0.079200
     23 H9          52.3120    18.9700    -6.4080 hc         1 POK       0.079200
     24 H10         53.0120    20.3160    -8.4010 h1         1 POK       0.023700
     25 H11         51.5110    21.2550    -8.2940 h1         1 POK       0.023700
     26 H12         51.8020    18.3860    -9.0440 hn         1 POK       0.391800
     27 H13         50.2250    17.2720    -8.5500 hn         1 POK       0.335400
     28 H14         49.9480    20.8590    -9.6220 hn         1 POK       0.404800
     29 H15         47.2750    19.5740    -9.7820 h1         1 POK       0.028200
     30 H16         47.6250    21.3030    -9.8560 h1         1 POK       0.028200
@<TRIPOS>BOND
     1     1     2 1   
     2     1    16 1   
     3     1    17 1   
     4     2     3 1   
     5     2     5 1   
     6     2    18 1   
     7     3     4 1   
     8     3    19 1   
     9     5     6 1   
    10     5    20 1   
    11     5    21 1   
    12     6     7 1   
    13     6    22 1   
    14     6    23 1   
    15     7     8 1   
    16     7    24 1   
    17     7    25 1   
    18     8     9 1   
    19     8    26 1   
    20     9    10 2   
    21     9    11 1   
    22    10    27 1   
    23    11    12 1   
    24    11    28 1   
    25    12    13 1   
    26    12    29 1   
    27    12    30 1   
    28    13    14 1   
    29    13    15 1   
@<TRIPOS>SUBSTRUCTURE
     1 POK         1 TEMP              0 ****  ****    0 ROOT
