@<TRIPOS>MOLECULE
POK
   30    29     1     0     0
SMALL
bcc


@<TRIPOS>ATOM
      1 N           53.3080    22.1160    -3.7760 n8         1 POK      -0.893800
      2 CA          52.4870    21.0460    -4.3400 c3         1 POK       0.012500
      3 C           52.7370    19.6580    -3.7040 c          1 POK       0.897600
      4 O           53.9340    19.3470    -3.5210 o          1 POK      -0.842800
      5 CB          52.7450    20.9870    -5.8470 c3         1 POK      -0.037400
      6 CG          51.8870    19.9860    -6.6080 c3         1 POK      -0.120400
      7 CD          52.1310    20.0740    -8.1130 c3         1 POK       0.213800
      8 NE          51.4020    19.1110    -8.9120 nu         1 POK      -0.901200
      9 CZ          50.0410    19.1310    -9.1280 c2         1 POK       0.828100
     10 NH1         49.3670    18.1230    -9.5640 n2         1 POK      -0.913100
     11 NH2         49.4340    20.3450    -8.9600 nu         1 POK      -0.812200
     12 CAA         47.9970    20.4350    -8.9170 c3         1 POK       0.067800
     13 CMA         47.3120    19.9020    -7.6360 c          1 POK       0.912600
     14 OMA         48.0320    19.6320    -6.6570 o          1 POK      -0.838800
     15 OMB         46.0690    19.8270    -7.7060 o          1 POK      -0.838800
     16 H1          53.0690    22.2300    -2.7980 hn         1 POK       0.317800
     17 H2          54.2670    21.7860    -3.7670 hn         1 POK       0.317800
     18 H4          51.4370    21.3190    -4.1880 h1         1 POK       0.055700
     19 O1          51.7360    18.9560    -3.4510 o          1 POK      -0.842800
     20 H6          53.8040    20.7590    -6.0140 hc         1 POK       0.011200
     21 H7          52.5810    21.9890    -6.2580 hc         1 POK       0.011200
     22 H8          50.8290    20.1580    -6.3920 hc         1 POK       0.079200
     23 H9          52.1050    18.9650    -6.2820 hc         1 POK       0.079200
     24 H10         53.1920    19.9110    -8.3150 h1         1 POK       0.023700
     25 H11         51.9250    21.0850    -8.4760 h1         1 POK       0.023700
     26 H12         51.7870    18.1800    -8.8820 hn         1 POK       0.391800
     27 H13         49.9750    17.3240    -9.7010 hn         1 POK       0.335400
     28 H14         49.8960    20.9900    -8.3420 hn         1 POK       0.404800
     29 H15         47.5780    19.9270    -9.7850 h1         1 POK       0.028200
     30 H16         47.7310    21.4910    -9.0270 h1         1 POK       0.028200
@<TRIPOS>BOND
     1     1     2 1   
     2     1    16 1   
     3     1    17 1   
     4     2     3 1   
     5     2     5 1   
     6     2    18 1   
     7     3     4 1   
     8     3    19 1   
     9     5     6 1   
    10     5    20 1   
    11     5    21 1   
    12     6     7 1   
    13     6    22 1   
    14     6    23 1   
    15     7     8 1   
    16     7    24 1   
    17     7    25 1   
    18     8     9 1   
    19     8    26 1   
    20     9    10 2   
    21     9    11 1   
    22    10    27 1   
    23    11    12 1   
    24    11    28 1   
    25    12    13 1   
    26    12    29 1   
    27    12    30 1   
    28    13    14 1   
    29    13    15 1   
@<TRIPOS>SUBSTRUCTURE
     1 POK         1 TEMP              0 ****  ****    0 ROOT
