@<TRIPOS>MOLECULE
POL
   12    11     1     0     0
SMALL
abcg2


@<TRIPOS>ATOM
      1 O            0.2020    -0.0110    -1.7750 oh         1 POL      -0.663000
      2 C1          -0.4620    -0.0110    -0.5290 c3         1 POL       0.162600
      3 C2           0.5640    -0.0260     0.5870 c3         1 POL      -0.081400
      4 C3          -0.1000    -0.0330     1.9570 c3         1 POL      -0.090100
      5 HO          -0.4620     0.0050    -2.4700 ho         1 POL       0.441000
      6 H11         -1.1180    -0.8860    -0.4250 h1         1 POL       0.014700
      7 H12         -1.1020     0.8750    -0.4160 h1         1 POL       0.014700
      8 H21          1.2140     0.8480     0.4940 hc         1 POL       0.051700
      9 H22          1.2030    -0.9070     0.4810 hc         1 POL       0.051700
     10 H31          0.6400    -0.0340     2.7560 hc         1 POL       0.033033
     11 H32         -0.7340     0.8460     2.0950 hc         1 POL       0.033033
     12 H33         -0.7290    -0.9150     2.0890 hc         1 POL       0.033033
@<TRIPOS>BOND
     1     1     2 1   
     2     1     5 1   
     3     2     3 1   
     4     2     6 1   
     5     2     7 1   
     6     3     4 1   
     7     3     8 1   
     8     3     9 1   
     9     4    10 1   
    10     4    11 1   
    11     4    12 1   
@<TRIPOS>SUBSTRUCTURE
     1 POL         1 TEMP              0 ****  ****    0 ROOT
