@<TRIPOS>MOLECULE
POL
   12    11     1     0     0
SMALL
No Charge or Current Charge


@<TRIPOS>ATOM
      1 O            0.2110    -0.0060    -1.8080 oh         1 POL      -0.663000
      2 C1          -0.4710    -0.0120    -0.5500 c3         1 POL       0.162600
      3 C2           0.5570    -0.0250     0.5990 c3         1 POL      -0.081400
      4 C3          -0.0990    -0.0320     1.9940 c3         1 POL      -0.090100
      5 HO          -0.4820     0.0020    -2.5070 ho         1 POL       0.441000
      6 H11         -1.1150    -0.8980    -0.4710 h1         1 POL       0.014700
      7 H12         -1.1070     0.8790    -0.4590 h1         1 POL       0.014700
      8 H21          1.2070     0.8540     0.5140 hc         1 POL       0.051700
      9 H22          1.1980    -0.9100     0.5010 hc         1 POL       0.051700
     10 H31          0.6690    -0.0420     2.7770 hc         1 POL       0.033033
     11 H32         -0.7210     0.8600     2.1340 hc         1 POL       0.033033
     12 H33         -0.7300    -0.9200     2.1210 hc         1 POL       0.033033
@<TRIPOS>BOND
     1     1     2 1   
     2     1     5 1   
     3     2     3 1   
     4     2     6 1   
     5     2     7 1   
     6     3     4 1   
     7     3     8 1   
     8     3     9 1   
     9     4    10 1   
    10     4    11 1   
    11     4    12 1   
@<TRIPOS>SUBSTRUCTURE
     1 POL         1 TEMP              0 ****  ****    0 ROOT
