@<TRIPOS>MOLECULE
POM
   18    18     1     0     0
SMALL
No Charge or Current Charge


@<TRIPOS>ATOM
      1 N           -5.6530    16.4120    18.0480 n7         1 POM      -0.861400
      2 CA          -5.6040    15.3340    16.9760 c5         1 POM       0.016500
      3 C           -6.7030    15.4510    15.8280 c          1 POM       0.700000
      4 O           -7.4240    16.4400    15.7960 o          1 POM      -0.728000
      5 OXT         -6.7920    14.5640    14.9900 o          1 POM      -0.728000
      6 CB          -5.8030    14.0020    17.7690 c5         1 POM      -0.168400
      7 CG          -6.8950    14.3860    18.7570 c          1 POM       0.584100
      8 CD          -6.4380    15.8110    19.1800 c5         1 POM       0.063500
      9 OG          -7.9990    13.8670    18.9050 o          1 POM      -0.568100
     10 CD1         -7.6100    16.7270    19.6010 c3         1 POM      -0.105100
     11 H           -6.1810    17.2050    17.6510 hn         1 POM       0.434000
     12 HA          -4.6310    15.3460    16.4660 h1         1 POM       0.052700
     13 HB2         -6.0760    13.1320    17.1640 hc         1 POM       0.067200
     14 HB3         -4.8770    13.8140    18.3250 hc         1 POM       0.067200
     15 HD          -5.7780    15.6770    20.0480 h1         1 POM       0.053700
     16 HD11        -8.1570    16.2980    20.4490 hc         1 POM       0.039700
     17 HD12        -7.2480    17.7150    19.9090 hc         1 POM       0.039700
     18 HD13        -8.3230    16.8680    18.7790 hc         1 POM       0.039700
@<TRIPOS>BOND
     1     1     2 1   
     2     1     8 1   
     3     1    11 1   
     4     2     3 1   
     5     2     6 1   
     6     2    12 1   
     7     3     4 1   
     8     3     5 1   
     9     6     7 1   
    10     6    13 1   
    11     6    14 1   
    12     7     8 1   
    13     7     9 2   
    14     8    10 1   
    15     8    15 1   
    16    10    16 1   
    17    10    17 1   
    18    10    18 1   
@<TRIPOS>SUBSTRUCTURE
     1 POM         1 TEMP              0 ****  ****    0 ROOT
