@<TRIPOS>MOLECULE
POM
   18    18     1     0     0
SMALL
abcg2


@<TRIPOS>ATOM
      1 N           -5.4990    16.2560    18.1650 n7         1 POM      -0.861400
      2 CA          -5.6580    15.3360    17.0360 c5         1 POM       0.016500
      3 C           -6.7030    15.7660    15.9720 c          1 POM       0.700000
      4 O           -7.0160    16.9730    15.9550 o          1 POM      -0.728000
      5 OXT         -7.0880    14.8780    15.1870 o          1 POM      -0.728000
      6 CB          -5.9600    13.9980    17.7020 c5         1 POM      -0.168400
      7 CG          -6.5800    14.3690    19.0230 c          1 POM       0.584100
      8 CD          -6.4060    15.8620    19.2320 c5         1 POM       0.063500
      9 OG          -7.1370    13.6230    19.7910 o          1 POM      -0.568100
     10 CD1         -7.7790    16.5420    19.2400 c3         1 POM      -0.105100
     11 H           -5.6970    17.1970    17.8490 hn         1 POM       0.434000
     12 HA          -4.7050    15.2720    16.4960 h1         1 POM       0.052700
     13 HB2         -6.6070    13.3480    17.1150 hc         1 POM       0.067200
     14 HB3         -5.0450    13.4340    17.9140 hc         1 POM       0.067200
     15 HD          -5.9440    16.0300    20.2120 h1         1 POM       0.053700
     16 HD11        -8.3700    16.1950    20.0880 hc         1 POM       0.039700
     17 HD12        -7.6590    17.6220    19.3360 hc         1 POM       0.039700
     18 HD13        -8.3390    16.3480    18.3260 hc         1 POM       0.039700
@<TRIPOS>BOND
     1     1     2 1   
     2     1     8 1   
     3     1    11 1   
     4     2     3 1   
     5     2     6 1   
     6     2    12 1   
     7     3     4 1   
     8     3     5 1   
     9     6     7 1   
    10     6    13 1   
    11     6    14 1   
    12     7     8 1   
    13     7     9 2   
    14     8    10 1   
    15     8    15 1   
    16    10    16 1   
    17    10    17 1   
    18    10    18 1   
@<TRIPOS>SUBSTRUCTURE
     1 POM         1 TEMP              0 ****  ****    0 ROOT
