@<TRIPOS>MOLECULE
POO
   75    79     1     0     0
SMALL
bcc


@<TRIPOS>ATOM
      1 C28         -1.8270     1.5100     5.6030 c6         1 POO      -0.069400
      2 C29         -0.7800     1.5670     6.7070 c6         1 POO      -0.073400
      3 C30          0.6080     1.7800     6.1230 c6         1 POO       0.165800
      4 N3           0.9300     0.7560     5.1480 n3         1 POO      -0.713600
      5 C31          2.2810     0.9020     4.6550 c3         1 POO       0.138100
      6 C27         -0.0250     0.7440     4.0580 c6         1 POO       0.167800
      7 C26         -1.4400     0.4700     4.5570 c6         1 POO      -0.089700
      8 C25         -2.4550     0.4580     3.4170 c3         1 POO       0.102000
      9 N2          -2.2090    -0.5900     2.4410 n          1 POO      -0.480800
     10 C24         -2.4690    -1.9530     2.8680 c3         1 POO       0.089300
     11 C23         -1.6010    -0.3050     1.2720 c          1 POO       0.646100
     12 O3          -1.3430     0.8260     0.8960 o          1 POO      -0.573100
     13 C22         -1.2340    -1.5080     0.4010 c3         1 POO      -0.033700
     14 N1          -0.4090    -1.1190    -0.7010 na         1 POO      -0.045400
     15 C1           0.9310    -0.8540    -0.5770 ca         1 POO      -0.044200
     16 C6           1.7970    -1.1510     0.4700 ca         1 POO      -0.137000
     17 C5           3.1290    -0.7860     0.3520 ca         1 POO      -0.110600
     18 C8           4.1060    -1.0970     1.4750 c          1 POO       0.919200
     19 O2           3.6600    -1.7370     2.4500 o          1 POO      -0.828300
     20 O1           5.2760    -0.6890     1.3320 o          1 POO      -0.828300
     21 C4           3.5670    -0.1340    -0.8160 ca         1 POO      -0.118000
     22 C3           2.7050     0.1630    -1.8530 ca         1 POO      -0.126000
     23 C2           1.3530    -0.1860    -1.7450 ca         1 POO      -0.102800
     24 C7           0.1960    -0.0200    -2.5770 cc         1 POO      -0.100400
     25 C16          0.1260     0.5960    -3.9400 c6         1 POO       0.018500
     26 C17          0.4380     2.0970    -3.9170 c6         1 POO      -0.069400
     27 C20          0.3210     2.7170    -5.3060 c6         1 POO      -0.073900
     28 C21          1.2080     1.9920    -6.3120 c6         1 POO      -0.072400
     29 C19          0.8950     0.5000    -6.3460 c6         1 POO      -0.073900
     30 C18          1.0150    -0.1280    -4.9600 c6         1 POO      -0.069400
     31 C9          -0.8520    -0.5770    -1.8910 cd         1 POO      -0.035300
     32 C10         -2.2570    -0.6760    -2.3010 ca         1 POO      -0.012800
     33 C11         -2.8770    -1.9180    -2.4530 ca         1 POO      -0.115000
     34 C12         -4.1990    -2.0000    -2.8620 ca         1 POO      -0.139000
     35 C13         -4.9200    -0.8440    -3.1310 ca         1 POO      -0.139000
     36 C14         -4.3120     0.3960    -2.9840 ca         1 POO      -0.139000
     37 C15         -2.9920     0.4790    -2.5650 ca         1 POO      -0.115000
     38 H281        -2.8130     1.2850     6.0190 hc         1 POO       0.030700
     39 H282        -1.9050     2.4930     5.1220 hc         1 POO       0.030700
     40 H291        -0.7920     0.6330     7.2780 hc         1 POO       0.036700
     41 H292        -1.0040     2.3720     7.4110 hc         1 POO       0.036700
     42 H301         1.3560     1.7530     6.9190 h1         1 POO       0.023200
     43 H302         0.6600     2.7910     5.6760 h1         1 POO       0.023200
     44 H311         2.9900     0.8350     5.4830 h1         1 POO       0.047700
     45 H312         2.5170     0.1040     3.9480 h1         1 POO       0.047700
     46 H313         2.4550     1.8640     4.1460 h1         1 POO       0.047700
     47 H271        -0.0200     1.7000     3.5000 h1         1 POO       0.048200
     48 H272         0.2790    -0.0290     3.3470 h1         1 POO       0.048200
     49 H26         -1.4380    -0.5140     5.0430 hc         1 POO       0.056700
     50 H251        -3.4580     0.3120     3.8270 h1         1 POO       0.052200
     51 H252        -2.4570     1.4200     2.9050 h1         1 POO       0.052200
     52 H241        -2.9140    -2.5480     2.0720 h1         1 POO       0.036367
     53 H242        -1.5710    -2.4650     3.2240 h1         1 POO       0.036367
     54 H243        -3.1860    -1.9310     3.6850 h1         1 POO       0.036367
     55 H221        -0.7110    -2.2680     0.9850 h1         1 POO       0.073200
     56 H222        -2.1420    -1.9910     0.0370 h1         1 POO       0.073200
     57 H6           1.4580    -1.6530     1.3680 ha         1 POO       0.145000
     58 H4           4.6090     0.1420    -0.8970 ha         1 POO       0.146000
     59 H3           3.0810     0.6680    -2.7340 ha         1 POO       0.110000
     60 H16         -0.9070     0.4910    -4.2920 hc         1 POO       0.037700
     61 H171        -0.2370     2.5980    -3.2180 hc         1 POO       0.046950
     62 H172         1.4520     2.2600    -3.5370 hc         1 POO       0.046950
     63 H201        -0.7220     2.6690    -5.6390 hc         1 POO       0.028950
     64 H202         0.5820     3.7770    -5.2630 hc         1 POO       0.028950
     65 H211         1.0890     2.4260    -7.3080 hc         1 POO       0.031200
     66 H212         2.2590     2.1340    -6.0330 hc         1 POO       0.031200
     67 H191        -0.1240     0.3520    -6.7190 hc         1 POO       0.028950
     68 H192         1.5590    -0.0120    -7.0480 hc         1 POO       0.028950
     69 H181         2.0610    -0.0970    -4.6380 hc         1 POO       0.046950
     70 H182         0.7360    -1.1840    -5.0020 hc         1 POO       0.046950
     71 H11         -2.3170    -2.8270    -2.2660 ha         1 POO       0.141000
     72 H12         -4.6650    -2.9700    -2.9810 ha         1 POO       0.122000
     73 H13         -5.9510    -0.9090    -3.4550 ha         1 POO       0.119000
     74 H14         -4.8690     1.3020    -3.1870 ha         1 POO       0.122000
     75 H15         -2.5250     1.4480    -2.4340 ha         1 POO       0.141000
@<TRIPOS>BOND
     1     1     2 1   
     2     1     7 1   
     3     1    38 1   
     4     1    39 1   
     5     2     3 1   
     6     2    40 1   
     7     2    41 1   
     8     3     4 1   
     9     3    42 1   
    10     3    43 1   
    11     4     5 1   
    12     4     6 1   
    13     5    44 1   
    14     5    45 1   
    15     5    46 1   
    16     6     7 1   
    17     6    47 1   
    18     6    48 1   
    19     7     8 1   
    20     7    49 1   
    21     8     9 1   
    22     8    50 1   
    23     8    51 1   
    24     9    10 1   
    25     9    11 1   
    26    10    52 1   
    27    10    53 1   
    28    10    54 1   
    29    11    12 2   
    30    11    13 1   
    31    13    14 1   
    32    13    55 1   
    33    13    56 1   
    34    14    15 1   
    35    14    31 1   
    36    15    16 ar  
    37    15    23 ar  
    38    16    17 ar  
    39    16    57 1   
    40    17    18 1   
    41    17    21 ar  
    42    18    19 1   
    43    18    20 1   
    44    21    22 ar  
    45    21    58 1   
    46    22    23 ar  
    47    22    59 1   
    48    23    24 1   
    49    24    25 1   
    50    24    31 2   
    51    25    26 1   
    52    25    30 1   
    53    25    60 1   
    54    26    27 1   
    55    26    61 1   
    56    26    62 1   
    57    27    28 1   
    58    27    63 1   
    59    27    64 1   
    60    28    29 1   
    61    28    65 1   
    62    28    66 1   
    63    29    30 1   
    64    29    67 1   
    65    29    68 1   
    66    30    69 1   
    67    30    70 1   
    68    31    32 1   
    69    32    33 ar  
    70    32    37 ar  
    71    33    34 ar  
    72    33    71 1   
    73    34    35 ar  
    74    34    72 1   
    75    35    36 ar  
    76    35    73 1   
    77    36    37 ar  
    78    36    74 1   
    79    37    75 1   
@<TRIPOS>SUBSTRUCTURE
     1 POO         1 TEMP              0 ****  ****    0 ROOT
