@<TRIPOS>MOLECULE
POO
   75    79     1     0     0
SMALL
No Charge or Current Charge


@<TRIPOS>ATOM
      1 C28         -1.2490     1.3730     5.5060 c6         1 POO      -0.069400
      2 C29          0.0720     1.9720     6.0370 c6         1 POO      -0.073400
      3 C30          0.9110     2.5730     4.8840 c6         1 POO       0.165800
      4 N3           1.1800     1.5630     3.8260 n3         1 POO      -0.713600
      5 C31          2.0760     2.0780     2.7660 c3         1 POO       0.138100
      6 C27         -0.0820     0.9980     3.2700 c6         1 POO       0.167800
      7 C26         -0.9670     0.3520     4.3730 c6         1 POO      -0.089700
      8 C25         -2.2930    -0.2170     3.7930 c3         1 POO       0.102000
      9 N2          -2.1050    -1.2630     2.7580 n          1 POO      -0.413800
     10 C24         -1.9400    -2.6540     3.2350 c3         1 POO       0.089300
     11 C23         -2.1990    -0.9430     1.3770 c          1 POO       0.579100
     12 O3          -2.5170     0.1870     1.0260 o          1 POO      -0.573100
     13 C22         -1.8620    -2.0190     0.3210 c3         1 POO      -0.004400
     14 N1          -0.8820    -1.5400    -0.6820 na         1 POO      -0.074700
     15 C1           0.4390    -1.2930    -0.3460 ca         1 POO      -0.044200
     16 C6           1.1680    -1.8070     0.7410 ca         1 POO      -0.119000
     17 C5           2.5200    -1.4120     0.9190 ca         1 POO      -0.110600
     18 C8           3.3440    -1.9560     2.0780 c          1 POO       0.708600
     19 O2           2.8500    -2.8120     2.7990 o          1 POO      -0.723000
     20 O1           4.4870    -1.5440     2.2290 o          1 POO      -0.723000
     21 C4           3.0880    -0.4990    -0.0110 ca         1 POO      -0.100000
     22 C3           2.3340    -0.0030    -1.0930 ca         1 POO      -0.108000
     23 C2           1.0050    -0.4310    -1.2380 ca         1 POO      -0.102800
     24 C7           0.0210    -0.1130    -2.2450 cc         1 POO      -0.100400
     25 C16          0.1880     0.7060    -3.5190 c6         1 POO       0.018500
     26 C17          0.4630     2.2010    -3.1950 c6         1 POO      -0.069400
     27 C20          0.6400     3.0320    -4.4900 c6         1 POO      -0.073900
     28 C21          1.7560     2.4410    -5.3870 c6         1 POO      -0.072400
     29 C19          1.4820     0.9520    -5.7160 c6         1 POO      -0.073900
     30 C18          1.3060     0.1150    -4.4240 c6         1 POO      -0.069400
     31 C9          -1.1340    -0.8360    -1.8940 cd         1 POO      -0.035300
     32 C10         -2.4810    -0.7400    -2.5070 ca         1 POO      -0.012800
     33 C11         -3.2880    -1.8930    -2.6210 ca         1 POO      -0.097000
     34 C12         -4.5700    -1.8240    -3.1940 ca         1 POO      -0.121000
     35 C13         -5.0680    -0.5960    -3.6550 ca         1 POO      -0.121000
     36 C14         -4.2830     0.5610    -3.5410 ca         1 POO      -0.121000
     37 C15         -3.0000     0.4890    -2.9710 ca         1 POO      -0.097000
     38 H281        -1.7950     0.8890     6.3270 hc         1 POO       0.030700
     39 H282        -1.8930     2.1800     5.1310 hc         1 POO       0.030700
     40 H291         0.6550     1.1940     6.5500 hc         1 POO       0.036700
     41 H292        -0.1410     2.7480     6.7850 hc         1 POO       0.036700
     42 H301         1.8580     2.9520     5.2970 h1         1 POO       0.023200
     43 H302         0.3740     3.4340     4.4590 h1         1 POO       0.023200
     44 H311         3.0270     2.4240     3.1920 h1         1 POO       0.047700
     45 H312         2.3020     1.2930     2.0330 h1         1 POO       0.047700
     46 H313         1.6130     2.9190     2.2320 h1         1 POO       0.047700
     47 H271        -0.6590     1.7860     2.7610 h1         1 POO       0.048200
     48 H272         0.1560     0.2370     2.5130 h1         1 POO       0.048200
     49 H26         -0.4200    -0.5010     4.7980 hc         1 POO       0.056700
     50 H251        -2.8760    -0.6430     4.6200 h1         1 POO       0.052200
     51 H252        -2.8870     0.6140     3.3910 h1         1 POO       0.052200
     52 H241        -2.6660    -3.3100     2.7380 h1         1 POO       0.036367
     53 H242        -0.9230    -3.0040     3.0200 h1         1 POO       0.036367
     54 H243        -2.1040    -2.7120     4.3190 h1         1 POO       0.036367
     55 H221        -1.4530    -2.9170     0.7920 h1         1 POO       0.073200
     56 H222        -2.8030    -2.3050    -0.1550 h1         1 POO       0.073200
     57 H6           0.7060    -2.5010     1.4360 ha         1 POO       0.127000
     58 H4           4.1200    -0.1750     0.1010 ha         1 POO       0.128000
     59 H3           2.7870     0.6920    -1.7930 ha         1 POO       0.092000
     60 H16         -0.7250     0.6560    -4.1240 hc         1 POO       0.037700
     61 H171        -0.3630     2.6140    -2.6010 hc         1 POO       0.046950
     62 H172         1.3620     2.3000    -2.5750 hc         1 POO       0.046950
     63 H201        -0.3070     3.0580    -5.0450 hc         1 POO       0.028950
     64 H202         0.8810     4.0730    -4.2340 hc         1 POO       0.028950
     65 H211         1.8310     3.0200    -6.3180 hc         1 POO       0.031200
     66 H212         2.7260     2.5350    -4.8810 hc         1 POO       0.031200
     67 H191         0.5780     0.8710    -6.3360 hc         1 POO       0.028950
     68 H192         2.3080     0.5440    -6.3140 hc         1 POO       0.028950
     69 H181         2.2620     0.0760    -3.8900 hc         1 POO       0.046950
     70 H182         1.0580    -0.9220    -4.6880 hc         1 POO       0.046950
     71 H11         -2.9060    -2.8590    -2.2970 ha         1 POO       0.123000
     72 H12         -5.1740    -2.7240    -3.2840 ha         1 POO       0.104000
     73 H13         -6.0610    -0.5410    -4.0970 ha         1 POO       0.101000
     74 H14         -4.6700     1.5170    -3.8860 ha         1 POO       0.104000
     75 H15         -2.4270     1.4040    -2.8550 ha         1 POO       0.123000
@<TRIPOS>BOND
     1     1     2 1   
     2     1     7 1   
     3     1    38 1   
     4     1    39 1   
     5     2     3 1   
     6     2    40 1   
     7     2    41 1   
     8     3     4 1   
     9     3    42 1   
    10     3    43 1   
    11     4     5 1   
    12     4     6 1   
    13     5    44 1   
    14     5    45 1   
    15     5    46 1   
    16     6     7 1   
    17     6    47 1   
    18     6    48 1   
    19     7     8 1   
    20     7    49 1   
    21     8     9 1   
    22     8    50 1   
    23     8    51 1   
    24     9    10 1   
    25     9    11 1   
    26    10    52 1   
    27    10    53 1   
    28    10    54 1   
    29    11    12 2   
    30    11    13 1   
    31    13    14 1   
    32    13    55 1   
    33    13    56 1   
    34    14    15 1   
    35    14    31 1   
    36    15    16 ar  
    37    15    23 ar  
    38    16    17 ar  
    39    16    57 1   
    40    17    18 1   
    41    17    21 ar  
    42    18    19 1   
    43    18    20 1   
    44    21    22 ar  
    45    21    58 1   
    46    22    23 ar  
    47    22    59 1   
    48    23    24 1   
    49    24    25 1   
    50    24    31 2   
    51    25    26 1   
    52    25    30 1   
    53    25    60 1   
    54    26    27 1   
    55    26    61 1   
    56    26    62 1   
    57    27    28 1   
    58    27    63 1   
    59    27    64 1   
    60    28    29 1   
    61    28    65 1   
    62    28    66 1   
    63    29    30 1   
    64    29    67 1   
    65    29    68 1   
    66    30    69 1   
    67    30    70 1   
    68    31    32 1   
    69    32    33 ar  
    70    32    37 ar  
    71    33    34 ar  
    72    33    71 1   
    73    34    35 ar  
    74    34    72 1   
    75    35    36 ar  
    76    35    73 1   
    77    36    37 ar  
    78    36    74 1   
    79    37    75 1   
@<TRIPOS>SUBSTRUCTURE
     1 POO         1 TEMP              0 ****  ****    0 ROOT
