@<TRIPOS>MOLECULE
POP
    9     8     1     0     0
SMALL
abcg2


@<TRIPOS>ATOM
      1 P1          -3.4070    58.6290    16.8030 p5         1 POP       1.418400
      2 O1          -2.8880    59.9010    17.4790 o          1 POP      -1.009667
      3 O2          -3.7770    58.8400    15.3320 o          1 POP      -1.009667
      4 O3          -4.5100    57.9350    17.6030 o          1 POP      -1.009667
      5 O           -2.1280    57.5770    16.6920 os         1 POP      -0.777800
      6 P2          -1.1190    56.7030    17.6800 p5         1 POP       1.418400
      7 O4          -0.2340    55.9720    16.6680 o          1 POP      -1.009667
      8 O5          -0.3430    57.7020    18.5400 o          1 POP      -1.009667
      9 O6          -1.9920    55.7580    18.5070 o          1 POP      -1.009667
@<TRIPOS>BOND
     1     1     2 1   
     2     1     3 1   
     3     1     4 1   
     4     1     5 1   
     5     5     6 1   
     6     6     7 1   
     7     6     8 1   
     8     6     9 1   
@<TRIPOS>SUBSTRUCTURE
     1 POP         1 TEMP              0 ****  ****    0 ROOT
