@<TRIPOS>MOLECULE
POP
    9     8     1     0     0
SMALL
No Charge or Current Charge


@<TRIPOS>ATOM
      1 P1          -3.2290    58.5720    16.8150 p5         1 POP       1.418400
      2 O1          -2.6410    59.9190    17.0680 o          1 POP      -1.009667
      3 O2          -4.0800    58.6860    15.5960 o          1 POP      -1.009667
      4 O3          -4.1240    58.1710    17.9370 o          1 POP      -1.009667
      5 O           -2.1010    57.5130    16.4870 os         1 POP      -0.777800
      6 P2          -1.2840    56.7460    17.6040 p5         1 POP       1.418400
      7 O4          -0.0320    56.2550    16.9610 o          1 POP      -1.009667
      8 O5          -0.8780    57.6070    18.7510 o          1 POP      -1.009667
      9 O6          -2.0300    55.5480    18.0850 o          1 POP      -1.009667
@<TRIPOS>BOND
     1     1     2 1   
     2     1     3 1   
     3     1     4 1   
     4     1     5 1   
     5     5     6 1   
     6     6     7 1   
     7     6     8 1   
     8     6     9 1   
@<TRIPOS>SUBSTRUCTURE
     1 POP         1 TEMP              0 ****  ****    0 ROOT
