@<TRIPOS>MOLECULE
POS
   70    72     1     0     0
SMALL
No Charge or Current Charge


@<TRIPOS>ATOM
      1 C1          -2.8380    -0.0410    -0.5610 ca         1 POS       0.103100
      2 C2          -2.0150    -0.9880     0.0790 ca         1 POS      -0.137500
      3 C3          -2.5620    -1.8760     1.0220 ca         1 POS      -0.090000
      4 C4          -3.9320    -1.8120     1.3320 ca         1 POS      -0.118000
      5 C5          -4.7520    -0.8550     0.7090 ca         1 POS      -0.090000
      6 C6          -4.2030     0.0330    -0.2340 ca         1 POS      -0.137500
      7 O7          -2.3270     0.8390    -1.4900 os         1 POS      -0.252200
      8 C8          -1.3200     0.5060    -2.3700 ca         1 POS       0.184100
      9 C9          -0.3770     1.4830    -2.7190 ca         1 POS      -0.174500
     10 C10          0.6580     1.1800    -3.6210 ca         1 POS       0.013500
     11 C11          0.7510    -0.1150    -4.1720 ca         1 POS      -0.343500
     12 C12         -0.2120    -1.0910    -3.8420 ca         1 POS       0.013500
     13 C13         -1.2470    -0.7760    -2.9470 ca         1 POS      -0.174500
     14 S14          2.0830    -0.5110    -5.3110 sy         1 POS       1.161600
     15 O15          2.5070     0.7120    -5.9950 o          1 POS      -0.532500
     16 O16          1.7910    -1.7450    -6.0450 o          1 POS      -0.532500
     17 N17          3.3640    -0.8740    -4.3010 n7         1 POS      -0.864300
     18 C18          3.1530    -1.6330    -3.0460 c3         1 POS       0.172800
     19 C19          2.8860    -0.6780    -1.8440 c3         1 POS       0.105300
     20 O20          3.6880     0.5220    -1.9750 oh         1 POS      -0.663000
     21 C21          3.1430    -1.3420    -0.4700 c3         1 POS       0.073000
     22 N22          2.7120    -0.4640     0.6280 ns         1 POS      -0.506900
     23 C23          1.6440    -0.7120     1.4650 c          1 POS       0.578100
     24 O24          1.0580    -1.7870     1.4670 o          1 POS      -0.586100
     25 C25          1.2380     0.4820     2.3730 c3         1 POS       0.029700
     26 C26          2.2110     0.6330     3.5740 c3         1 POS      -0.083400
     27 C27          1.9580     1.8560     4.5000 c3         1 POS      -0.056700
     28 C28          2.8600     1.7940     5.7530 c3         1 POS      -0.092600
     29 C29          2.1380     3.2070     3.7670 c3         1 POS      -0.092600
     30 N30         -0.1570     0.3140     2.8440 ns         1 POS      -0.475900
     31 C31         -1.1780     1.2210     2.6480 c          1 POS       0.619700
     32 O32         -1.0010     2.2610     2.0300 o          1 POS      -0.595100
     33 C33         -2.5220     0.8640     3.2470 ca         1 POS      -0.109600
     34 C34         -3.6580     1.6590     2.9740 ca         1 POS      -0.128000
     35 C35         -4.9010     1.3200     3.5330 ca         1 POS       0.329400
     36 N36         -5.0800     0.2540     4.3460 nb         1 POS      -0.651000
     37 C37         -2.7180    -0.2510     4.0990 ca         1 POS      -0.128000
     38 C38         -3.9990    -0.5130     4.6170 ca         1 POS       0.329400
     39 H2          -0.9550    -1.0380    -0.1510 ha         1 POS       0.124500
     40 H3          -1.9250    -2.6100     1.5110 ha         1 POS       0.130000
     41 H4          -4.3570    -2.4980     2.0620 ha         1 POS       0.122000
     42 H5          -5.8100    -0.8000     0.9570 ha         1 POS       0.130000
     43 H6          -4.8360     0.7730    -0.7180 ha         1 POS       0.124500
     44 H9          -0.4440     2.4770    -2.2850 ha         1 POS       0.136000
     45 H10          1.3880     1.9480    -3.8740 ha         1 POS       0.137000
     46 H12         -0.1640    -2.0900    -4.2740 ha         1 POS       0.137000
     47 H13         -1.9920    -1.5290    -2.7050 ha         1 POS       0.136000
     48 HN7          3.6410     0.0670    -4.0120 hn         1 POS       0.487000
     49 H181         4.0670    -2.1990    -2.8170 h1         1 POS       0.077200
     50 H182         2.3440    -2.3710    -3.1380 h1         1 POS       0.077200
     51 H19          1.8220    -0.4120    -1.8610 h1         1 POS       0.090700
     52 H20          4.5920     0.3150    -1.6480 ho         1 POS       0.447000
     53 H211         4.2120    -1.5670    -0.3510 h1         1 POS       0.060200
     54 H212         2.5960    -2.2930    -0.4220 h1         1 POS       0.060200
     55 HN2          3.1310     0.4580     0.6870 hn         1 POS       0.323500
     56 H25          1.3040     1.3780     1.7440 h1         1 POS       0.090700
     57 H261         3.2390     0.6880     3.1960 hc         1 POS       0.049200
     58 H262         2.1570    -0.2850     4.1750 hc         1 POS       0.049200
     59 H27          0.9200     1.8090     4.8550 hc         1 POS       0.047700
     60 H281         2.6440     2.6300     6.4300 hc         1 POS       0.037533
     61 H282         2.6930     0.8620     6.3070 hc         1 POS       0.037533
     62 H283         3.9200     1.8430     5.4750 hc         1 POS       0.037533
     63 H291         3.1490     3.2950     3.3510 hc         1 POS       0.037533
     64 H292         1.4180     3.3160     2.9480 hc         1 POS       0.037533
     65 H293         1.9790     4.0450     4.4570 hc         1 POS       0.037533
     66 HN3         -0.3980    -0.5490     3.3130 hn         1 POS       0.323500
     67 H34         -3.5870     2.5290     2.3270 ha         1 POS       0.134000
     68 H35         -5.7840     1.9240     3.3250 h4         1 POS       0.023600
     69 H37         -1.9050    -0.9150     4.3750 ha         1 POS       0.134000
     70 H38         -4.1650    -1.3660     5.2730 h4         1 POS       0.023600
@<TRIPOS>BOND
     1     1     2 ar  
     2     1     6 ar  
     3     1     7 1   
     4     2     3 ar  
     5     2    39 1   
     6     3     4 ar  
     7     3    40 1   
     8     4     5 ar  
     9     4    41 1   
    10     5     6 ar  
    11     5    42 1   
    12     6    43 1   
    13     7     8 1   
    14     8     9 ar  
    15     8    13 ar  
    16     9    10 ar  
    17     9    44 1   
    18    10    11 ar  
    19    10    45 1   
    20    11    12 ar  
    21    11    14 1   
    22    12    13 ar  
    23    12    46 1   
    24    13    47 1   
    25    14    15 2   
    26    14    16 2   
    27    14    17 1   
    28    17    18 1   
    29    17    48 1   
    30    18    19 1   
    31    18    49 1   
    32    18    50 1   
    33    19    20 1   
    34    19    21 1   
    35    19    51 1   
    36    20    52 1   
    37    21    22 1   
    38    21    53 1   
    39    21    54 1   
    40    22    23 1   
    41    22    55 1   
    42    23    24 2   
    43    23    25 1   
    44    25    26 1   
    45    25    30 1   
    46    25    56 1   
    47    26    27 1   
    48    26    57 1   
    49    26    58 1   
    50    27    28 1   
    51    27    29 1   
    52    27    59 1   
    53    28    60 1   
    54    28    61 1   
    55    28    62 1   
    56    29    63 1   
    57    29    64 1   
    58    29    65 1   
    59    30    31 1   
    60    30    66 1   
    61    31    32 2   
    62    31    33 1   
    63    33    34 ar  
    64    33    37 ar  
    65    34    35 ar  
    66    34    67 1   
    67    35    36 ar  
    68    35    68 1   
    69    36    38 ar  
    70    37    38 ar  
    71    37    69 1   
    72    38    70 1   
@<TRIPOS>SUBSTRUCTURE
     1 POS         1 TEMP              0 ****  ****    0 ROOT
