@<TRIPOS>MOLECULE
POS
   70    72     1     0     0
SMALL
bcc


@<TRIPOS>ATOM
      1 C1          -1.8140     2.3340    -1.9150 ca         1 POS       0.103100
      2 C2          -1.7020     1.4300    -0.8660 ca         1 POS      -0.155500
      3 C3          -2.7690     1.2710     0.0070 ca         1 POS      -0.108000
      4 C4          -3.9310     2.0160    -0.1560 ca         1 POS      -0.136000
      5 C5          -4.0230     2.9240    -1.2020 ca         1 POS      -0.108000
      6 C6          -2.9680     3.0820    -2.0910 ca         1 POS      -0.155500
      7 O7          -0.7710     2.5760    -2.7730 os         1 POS      -0.252200
      8 C8          -0.0760     1.5490    -3.3180 ca         1 POS       0.184100
      9 C9           1.2650     1.7910    -3.6050 ca         1 POS      -0.192500
     10 C10          2.0380     0.7920    -4.1580 ca         1 POS      -0.004500
     11 C11          1.4700    -0.4500    -4.4200 ca         1 POS      -0.343500
     12 C12          0.1250    -0.6830    -4.1710 ca         1 POS      -0.004500
     13 C13         -0.6560     0.3220    -3.6260 ca         1 POS      -0.192500
     14 S14          2.5260    -1.7750    -4.9230 sy         1 POS       1.303200
     15 O15          3.4340    -1.2820    -5.9440 o          1 POS      -0.603300
     16 O16          1.6900    -2.9350    -5.1830 o          1 POS      -0.603300
     17 N17          3.4810    -2.1420    -3.6330 n7         1 POS      -0.809100
     18 C18          2.9160    -2.6100    -2.3760 c3         1 POS       0.172800
     19 C19          2.4060    -1.4930    -1.4620 c3         1 POS       0.082100
     20 O20          3.3390    -0.4440    -1.3420 oh         1 POS      -0.600800
     21 C21          2.0030    -2.0560    -0.1080 c3         1 POS       0.073000
     22 N22          1.4170    -1.0060     0.6970 ns         1 POS      -0.573900
     23 C23          0.8700    -1.2400     1.9010 c          1 POS       0.645100
     24 O24          0.7670    -2.3550     2.3790 o          1 POS      -0.586100
     25 C25          0.3540     0.0150     2.6210 c3         1 POS       0.029700
     26 C26          1.4970     0.9630     2.9970 c3         1 POS      -0.083400
     27 C27          1.0530     2.2510     3.6970 c3         1 POS      -0.056700
     28 C28          2.2810     3.0870     4.0440 c3         1 POS      -0.092600
     29 C29          0.0800     3.0590     2.8460 c3         1 POS      -0.092600
     30 N30         -0.3850    -0.3520     3.7970 ns         1 POS      -0.542900
     31 C31         -1.6080    -0.9040     3.7290 c          1 POS       0.686700
     32 O32         -2.2200    -1.0620     2.6850 o          1 POS      -0.595100
     33 C33         -2.2100    -1.2990     5.0420 ca         1 POS      -0.109600
     34 C34         -3.1060    -2.3600     5.0800 ca         1 POS      -0.211300
     35 C35         -3.6650    -2.7120     6.2980 ca         1 POS       0.394700
     36 N36         -3.4070    -2.0760     7.4360 nb         1 POS      -0.651000
     37 C37         -1.9390    -0.6270     6.2270 ca         1 POS      -0.211300
     38 C38         -2.5660    -1.0510     7.3900 ca         1 POS       0.394700
     39 H2          -0.7990     0.8470    -0.7300 ha         1 POS       0.142500
     40 H3          -2.6910     0.5580     0.8170 ha         1 POS       0.148000
     41 H4          -4.7580     1.8880     0.5290 ha         1 POS       0.140000
     42 H5          -4.9230     3.5090    -1.3370 ha         1 POS       0.148000
     43 H6          -3.0360     3.7840    -2.9120 ha         1 POS       0.142500
     44 H9           1.6980     2.7560    -3.3770 ha         1 POS       0.154000
     45 H10          3.0840     0.9830    -4.3620 ha         1 POS       0.155000
     46 H12         -0.3220    -1.6440    -4.3870 ha         1 POS       0.155000
     47 H13         -1.7050     0.1360    -3.4340 ha         1 POS       0.154000
     48 HN7          4.2370    -1.4760    -3.5210 hn         1 POS       0.431800
     49 H181         3.7070    -3.1720    -1.8720 h1         1 POS       0.077200
     50 H182         2.1170    -3.3230    -2.5820 h1         1 POS       0.077200
     51 H19          1.5200    -1.0390    -1.9120 h1         1 POS       0.090700
     52 H20          4.1170    -0.7690    -0.8730 ho         1 POS       0.408000
     53 H211         2.8750    -2.4930     0.3930 h1         1 POS       0.060200
     54 H212         1.2760    -2.8570    -0.2490 h1         1 POS       0.060200
     55 HN2          1.6170    -0.0560     0.4250 hn         1 POS       0.323500
     56 H25         -0.3260     0.5290     1.9360 h1         1 POS       0.090700
     57 H261         2.0450     1.2400     2.0920 hc         1 POS       0.049200
     58 H262         2.2090     0.4270     3.6330 hc         1 POS       0.049200
     59 H27          0.5530     1.9840     4.6330 hc         1 POS       0.047700
     60 H281         1.9980     3.9820     4.6000 hc         1 POS       0.037533
     61 H282         2.9900     2.5260     4.6550 hc         1 POS       0.037533
     62 H283         2.8010     3.4110     3.1400 hc         1 POS       0.037533
     63 H291         0.5200     3.3010     1.8750 hc         1 POS       0.037533
     64 H292        -0.8580     2.5340     2.6640 hc         1 POS       0.037533
     65 H293        -0.1720     4.0000     3.3380 hc         1 POS       0.037533
     66 HN3          0.1340    -0.4370     4.6580 hn         1 POS       0.323500
     67 H34         -3.3610    -2.9120     4.1870 ha         1 POS       0.152000
     68 H35         -4.3540    -3.5470     6.3550 h4         1 POS       0.023600
     69 H37         -1.2780     0.2290     6.2650 ha         1 POS       0.152000
     70 H38         -2.3760    -0.5340     8.3230 h4         1 POS       0.023600
@<TRIPOS>BOND
     1     1     2 ar  
     2     1     6 ar  
     3     1     7 1   
     4     2     3 ar  
     5     2    39 1   
     6     3     4 ar  
     7     3    40 1   
     8     4     5 ar  
     9     4    41 1   
    10     5     6 ar  
    11     5    42 1   
    12     6    43 1   
    13     7     8 1   
    14     8     9 ar  
    15     8    13 ar  
    16     9    10 ar  
    17     9    44 1   
    18    10    11 ar  
    19    10    45 1   
    20    11    12 ar  
    21    11    14 1   
    22    12    13 ar  
    23    12    46 1   
    24    13    47 1   
    25    14    15 2   
    26    14    16 2   
    27    14    17 1   
    28    17    18 1   
    29    17    48 1   
    30    18    19 1   
    31    18    49 1   
    32    18    50 1   
    33    19    20 1   
    34    19    21 1   
    35    19    51 1   
    36    20    52 1   
    37    21    22 1   
    38    21    53 1   
    39    21    54 1   
    40    22    23 1   
    41    22    55 1   
    42    23    24 2   
    43    23    25 1   
    44    25    26 1   
    45    25    30 1   
    46    25    56 1   
    47    26    27 1   
    48    26    57 1   
    49    26    58 1   
    50    27    28 1   
    51    27    29 1   
    52    27    59 1   
    53    28    60 1   
    54    28    61 1   
    55    28    62 1   
    56    29    63 1   
    57    29    64 1   
    58    29    65 1   
    59    30    31 1   
    60    30    66 1   
    61    31    32 2   
    62    31    33 1   
    63    33    34 ar  
    64    33    37 ar  
    65    34    35 ar  
    66    34    67 1   
    67    35    36 ar  
    68    35    68 1   
    69    36    38 ar  
    70    37    38 ar  
    71    37    69 1   
    72    38    70 1   
@<TRIPOS>SUBSTRUCTURE
     1 POS         1 TEMP              0 ****  ****    0 ROOT
