@<TRIPOS>MOLECULE
POT
   32    32     1     0     0
SMALL
No Charge or Current Charge


@<TRIPOS>ATOM
      1 P            5.1820     0.7590     2.6960 p5         1 POT       1.103700
      2 C1           3.4440     1.3000     2.8690 c3         1 POT      -0.460100
      3 O1           6.1440     1.5970     3.4670 o          1 POT      -0.486000
      4 O2           5.0810    -0.7890     3.1720 os         1 POT      -0.574400
      5 C2           4.5570    -1.2300     4.4450 c3         1 POT       0.226300
      6 C3           4.6660    -2.7770     4.4490 c3         1 POT      -0.083400
      7 C4           3.8690    -3.4670     3.3190 c3         1 POT      -0.091100
      8 C5           5.3250    -0.5540     5.6200 c3         1 POT       0.135600
      9 O3           4.8350    -1.0860     6.8670 os         1 POT      -0.355100
     10 C6           6.8250     0.6600     9.4810 ca         1 POT      -0.074000
     11 C7           6.2770     0.0720    10.6330 ca         1 POT      -0.144000
     12 C8           5.2600    -0.8910    10.5160 ca         1 POT      -0.074000
     13 C9           4.7920    -1.2640     9.2440 ca         1 POT      -0.167500
     14 C10          5.3350    -0.6800     8.0870 ca         1 POT       0.141100
     15 C11          6.3570     0.2880     8.2080 ca         1 POT      -0.167500
     16 Cl1          5.7010     0.6320     0.6740 cl         1 POT      -0.209300
     17 H41          2.8070    -3.1970     3.3730 hc         1 POT       0.036033
     18 H42          4.2500    -3.1760     2.3320 hc         1 POT       0.036033
     19 H43          3.9500    -4.5570     3.4060 hc         1 POT       0.036033
     20 H31          4.3020    -3.1630     5.4080 hc         1 POT       0.066700
     21 H32          5.7220    -3.0650     4.3750 hc         1 POT       0.066700
     22 H2           3.4950    -0.9630     4.5320 h1         1 POT       0.047700
     23 H51          6.3990    -0.7520     5.5100 h1         1 POT       0.059700
     24 H52          5.1610     0.5300     5.5950 h1         1 POT       0.059700
     25 H11          6.7970     0.7580     7.3340 ha         1 POT       0.122000
     26 H7           6.6400     0.3610    11.6170 ha         1 POT       0.116000
     27 H8           4.8350    -1.3470    11.4080 ha         1 POT       0.113500
     28 H9           4.0060    -2.0080     9.1530 ha         1 POT       0.122000
     29 H11A         2.7840     0.5350     2.4460 hc         1 POT       0.094033
     30 H12          3.2100     1.4540     3.9270 hc         1 POT       0.094033
     31 H13          3.3130     2.2410     2.3240 hc         1 POT       0.094033
     32 H6           7.6120     1.4060     9.5740 ha         1 POT       0.113500
@<TRIPOS>BOND
     1     1     2 1   
     2     1     3 2   
     3     1     4 1   
     4     1    16 1   
     5     2    29 1   
     6     2    30 1   
     7     2    31 1   
     8     4     5 1   
     9     5     6 1   
    10     5     8 1   
    11     5    22 1   
    12     6     7 1   
    13     6    20 1   
    14     6    21 1   
    15     7    17 1   
    16     7    18 1   
    17     7    19 1   
    18     8     9 1   
    19     8    23 1   
    20     8    24 1   
    21     9    14 1   
    22    10    11 ar  
    23    10    15 ar  
    24    10    32 1   
    25    11    12 ar  
    26    11    26 1   
    27    12    13 ar  
    28    12    27 1   
    29    13    14 ar  
    30    13    28 1   
    31    14    15 ar  
    32    15    25 1   
@<TRIPOS>SUBSTRUCTURE
     1 POT         1 TEMP              0 ****  ****    0 ROOT
