@<TRIPOS>MOLECULE
POT
   32    32     1     0     0
SMALL
abcg2


@<TRIPOS>ATOM
      1 P            4.7220     0.9090     2.8160 p5         1 POT       1.103700
      2 C1           3.2580     0.4960     1.8720 c3         1 POT      -0.460100
      3 O1           4.5950     2.0760     3.7160 o          1 POT      -0.486000
      4 O2           5.2680    -0.4410     3.4780 os         1 POT      -0.574400
      5 C2           4.6620    -0.9680     4.6800 c3         1 POT       0.226300
      6 C3           4.5900    -2.4760     4.5350 c3         1 POT      -0.083400
      7 C4           3.6750    -2.9310     3.4080 c3         1 POT      -0.091100
      8 C5           5.5260    -0.5020     5.8440 c3         1 POT       0.135600
      9 O3           4.9010    -0.9500     7.0260 os         1 POT      -0.355100
     10 C6           7.1800     0.2610     9.6340 ca         1 POT      -0.074000
     11 C7           6.5040    -0.1740    10.7620 ca         1 POT      -0.144000
     12 C8           5.3040    -0.8610    10.6080 ca         1 POT      -0.074000
     13 C9           4.7900    -1.1090     9.3480 ca         1 POT      -0.167500
     14 C10          5.4750    -0.6680     8.2150 ca         1 POT       0.141100
     15 C11          6.6760     0.0220     8.3590 ca         1 POT      -0.167500
     16 CL1          6.1700     1.1510     1.4050 cl         1 POT      -0.209300
     17 H41          2.6540    -2.5770     3.5600 hc         1 POT       0.036033
     18 H42          4.0140    -2.5740     2.4350 hc         1 POT       0.036033
     19 H43          3.6410    -4.0190     3.3620 hc         1 POT       0.036033
     20 H31          4.2340    -2.8870     5.4810 hc         1 POT       0.066700
     21 H32          5.6020    -2.8660     4.3870 hc         1 POT       0.066700
     22 H2           3.6480    -0.5650     4.8050 h1         1 POT       0.047700
     23 H51          6.5360    -0.9180     5.7430 h1         1 POT       0.059700
     24 H52          5.6050     0.5910     5.8370 h1         1 POT       0.059700
     25 H11          7.2300     0.3770     7.5000 ha         1 POT       0.122000
     26 H7           6.9040     0.0180    11.7490 ha         1 POT       0.116000
     27 H8           4.7600    -1.2060    11.4790 ha         1 POT       0.113500
     28 H9           3.8560    -1.6460     9.2300 ha         1 POT       0.122000
     29 H11A         3.4300    -0.3570     1.2200 hc         1 POT       0.094033
     30 H12          2.4440     0.2670     2.5600 hc         1 POT       0.094033
     31 H13          2.9640     1.3560     1.2720 hc         1 POT       0.094033
     32 H6           8.1140     0.7990     9.7350 ha         1 POT       0.113500
@<TRIPOS>BOND
     1     1     2 1   
     2     1     3 2   
     3     1     4 1   
     4     1    16 1   
     5     2    29 1   
     6     2    30 1   
     7     2    31 1   
     8     4     5 1   
     9     5     6 1   
    10     5     8 1   
    11     5    22 1   
    12     6     7 1   
    13     6    20 1   
    14     6    21 1   
    15     7    17 1   
    16     7    18 1   
    17     7    19 1   
    18     8     9 1   
    19     8    23 1   
    20     8    24 1   
    21     9    14 1   
    22    10    11 ar  
    23    10    15 ar  
    24    10    32 1   
    25    11    12 ar  
    26    11    26 1   
    27    12    13 ar  
    28    12    27 1   
    29    13    14 ar  
    30    13    28 1   
    31    14    15 ar  
    32    15    25 1   
@<TRIPOS>SUBSTRUCTURE
     1 POT         1 TEMP              0 ****  ****    0 ROOT
