@<TRIPOS>MOLECULE
POU
   86    87     1     0     0
SMALL
No Charge or Current Charge


@<TRIPOS>ATOM
      1 C27          5.4560    52.7960    50.1840 c3         1 POU      -0.089100
      2 C16         -0.9900    47.3100    46.8900 c3         1 POU       0.142900
      3 C17         -7.4320    52.6350    43.0990 c3         1 POU       0.142900
      4 C25          2.3420    49.4300    48.3480 c3         1 POU      -0.049900
      5 C18         -4.0880    52.5610    48.4870 c3         1 POU      -0.085100
      6 C19         -4.6400    54.7370    47.3330 c3         1 POU      -0.085100
      7 C22          4.3630    50.8810    48.0500 c2         1 POU      -0.194200
      8 C26          6.1640    52.4780    48.8490 c3         1 POU      -0.070400
      9 C24          5.9130    51.8910    46.3450 c3         1 POU       0.163600
     10 C12         -1.0480    53.0260    47.6850 c3         1 POU      -0.069400
     11 C14          1.4630    52.6530    48.3550 c3         1 POU      -0.099400
     12 C4          -2.4450    49.3130    45.0670 c3         1 POU      -0.092400
     13 C6          -4.5540    50.4470    44.1830 c6         1 POU      -0.099400
     14 C21          3.0370    50.7050    47.8790 c2         1 POU      -0.136400
     15 O1           2.4350    50.4160    44.8480 o          1 POU      -0.495000
     16 O24          6.5350    53.1010    45.8910 oh         1 POU      -0.674000
     17 O11         -2.1860    54.8220    48.8210 oh         1 POU      -0.673000
     18 O2           0.2120    49.2680    43.4490 oh         1 POU      -0.703000
     19 O8          -6.2110    51.9140    46.2200 oh         1 POU      -0.715000
     20 O91         -3.0440    53.5020    44.9120 oh         1 POU      -0.700000
     21 O13          0.7440    54.3080    46.6740 os         1 POU      -0.480000
     22 O3          -0.4650    48.0580    45.7750 os         1 POU      -0.452000
     23 O7          -6.6430    51.5140    43.5470 os         1 POU      -0.475000
     24 O15          1.0470    51.1320    46.5330 os         1 POU      -0.441100
     25 O9          -3.1700    51.4590    45.9620 os         1 POU      -0.488000
     26 C1           1.3150    50.5190    45.3370 c          1 POU       0.575100
     27 C23          5.1890    52.1130    47.6970 c3         1 POU      -0.030500
     28 C11         -2.2020    54.0660    47.5960 c3         1 POU       0.168300
     29 C13          0.3590    53.6600    47.9070 c3         1 POU       0.173300
     30 C5          -3.1310    50.6710    44.7400 c6         1 POU       0.177300
     31 C2          -0.0070    50.1140    44.6140 c3         1 POU       0.117300
     32 C8          -5.2930    52.5910    45.3300 c6         1 POU       0.133300
     33 C15          2.1060    51.7590    47.2640 c3         1 POU       0.225500
     34 C3          -0.9870    49.3980    45.5950 c3         1 POU       0.176300
     35 C7          -5.2920    51.7910    43.9920 c6         1 POU       0.132300
     36 C10         -3.6690    53.5040    47.3050 c3         1 POU      -0.055000
     37 C9          -3.7970    52.7630    45.8710 c6         1 POU       0.411000
     38 H1           6.1900    53.0870    50.9440 hc         1 POU       0.031033
     39 H2           4.7470    53.6230    50.0590 hc         1 POU       0.031033
     40 H3           4.9070    51.9240    50.5590 hc         1 POU       0.031033
     41 H4           2.0240    55.7060    45.7910 h1         1 POU       0.032033
     42 H5           1.6330    56.0240    47.4940 h1         1 POU       0.032033
     43 H6           2.7720    54.7240    47.0640 h1         1 POU       0.032033
     44 H7          -0.4430    46.3660    47.0010 h1         1 POU       0.032033
     45 H8          -0.8830    47.8760    47.8240 h1         1 POU       0.032033
     46 H9          -2.0500    47.0660    46.7460 h1         1 POU       0.032033
     47 H10         -8.4070    52.2900    42.7310 h1         1 POU       0.035700
     48 H11         -7.6120    53.3470    43.9140 h1         1 POU       0.035700
     49 H12         -6.9280    53.1630    42.2790 h1         1 POU       0.035700
     50 H13          3.0280    48.7740    48.8970 hc         1 POU       0.044700
     51 H14          1.5040    49.6520    49.0190 hc         1 POU       0.044700
     52 H15          1.9510    48.8470    47.5060 hc         1 POU       0.044700
     53 H16         -3.9400    53.0430    49.4600 hc         1 POU       0.045367
     54 H17         -5.1460    52.2890    48.4410 hc         1 POU       0.045367
     55 H18         -3.5080    51.6310    48.4900 hc         1 POU       0.045367
     56 H19         -4.6070    55.2740    48.2880 hc         1 POU       0.045367
     57 H20         -4.3940    55.4490    46.5350 hc         1 POU       0.045367
     58 H21         -5.6860    54.4360    47.2070 hc         1 POU       0.045367
     59 H22          4.9530    50.0830    48.5050 ha         1 POU       0.171000
     60 H23          6.8730    51.6550    49.0060 hc         1 POU       0.048200
     61 H24          6.7580    53.3530    48.5610 hc         1 POU       0.048200
     62 H25          5.1770    51.5500    45.6030 h1         1 POU       0.030700
     63 H26          6.6600    51.0930    46.4600 h1         1 POU       0.030700
     64 H27         -1.2540    52.3290    48.5050 hc         1 POU       0.070700
     65 H28         -1.0250    52.4380    46.7670 hc         1 POU       0.070700
     66 H29          1.0470    52.0140    49.1410 hc         1 POU       0.060200
     67 H30          2.2660    53.2170    48.8430 hc         1 POU       0.060200
     68 H31         -3.0610    48.7940    45.8090 hc         1 POU       0.067700
     69 H32         -2.4530    48.6810    44.1700 hc         1 POU       0.067700
     70 H33         -5.1230    49.7960    44.8600 hc         1 POU       0.068200
     71 H34         -4.4960    49.9220    43.2200 hc         1 POU       0.068200
     72 H35          6.9730    52.8940    45.0350 ho         1 POU       0.443000
     73 H36         -2.7290    55.6250    48.6710 ho         1 POU       0.441000
     74 H37          0.3050    48.3540    43.8120 ho         1 POU       0.530000
     75 H38         -6.8310    51.4460    45.6120 ho         1 POU       0.520000
     76 H39         -2.1130    53.2850    45.1100 ho         1 POU       0.465000
     77 H40          4.5290    52.9770    47.5650 hc         1 POU       0.059700
     78 H41         -1.9440    54.7530    46.7780 h1         1 POU       0.038700
     79 H42          0.2700    54.4030    48.7120 h1         1 POU       0.047700
     80 H43         -2.5380    51.1990    43.9800 h1         1 POU       0.044700
     81 H44         -0.4510    51.0680    44.3080 h1         1 POU       0.065700
     82 H45         -5.6790    53.5940    45.1030 h1         1 POU       0.052700
     83 H46          2.6730    52.4060    46.5810 h1         1 POU       0.071700
     84 H47         -1.0130    49.9350    46.5530 h1         1 POU       0.067700
     85 H48         -4.7740    52.3740    43.2150 h1         1 POU       0.062700
     86 C20          1.8470    55.2320    46.7640 c3         1 POU       0.143900
@<TRIPOS>BOND
     1     1     8 1   
     2     1    38 1   
     3     1    39 1   
     4     1    40 1   
     5     2    22 1   
     6     2    44 1   
     7     2    45 1   
     8     2    46 1   
     9     3    23 1   
    10     3    47 1   
    11     3    48 1   
    12     3    49 1   
    13     4    14 1   
    14     4    50 1   
    15     4    51 1   
    16     4    52 1   
    17     5    36 1   
    18     5    53 1   
    19     5    54 1   
    20     5    55 1   
    21     6    36 1   
    22     6    56 1   
    23     6    57 1   
    24     6    58 1   
    25     7    14 2   
    26     7    27 1   
    27     7    59 1   
    28     8    27 1   
    29     8    60 1   
    30     8    61 1   
    31     9    16 1   
    32     9    27 1   
    33     9    62 1   
    34     9    63 1   
    35    10    28 1   
    36    10    29 1   
    37    10    64 1   
    38    10    65 1   
    39    11    29 1   
    40    11    33 1   
    41    11    66 1   
    42    11    67 1   
    43    12    30 1   
    44    12    34 1   
    45    12    68 1   
    46    12    69 1   
    47    13    30 1   
    48    13    35 1   
    49    13    70 1   
    50    13    71 1   
    51    14    33 1   
    52    15    26 2   
    53    16    72 1   
    54    17    28 1   
    55    17    73 1   
    56    18    31 1   
    57    18    74 1   
    58    19    32 1   
    59    19    75 1   
    60    20    37 1   
    61    20    76 1   
    62    21    29 1   
    63    21    86 1   
    64    22    34 1   
    65    23    35 1   
    66    24    26 1   
    67    24    33 1   
    68    25    30 1   
    69    25    37 1   
    70    26    31 1   
    71    27    77 1   
    72    28    36 1   
    73    28    78 1   
    74    29    79 1   
    75    30    80 1   
    76    31    34 1   
    77    31    81 1   
    78    32    35 1   
    79    32    37 1   
    80    32    82 1   
    81    33    83 1   
    82    34    84 1   
    83    35    85 1   
    84    36    37 1   
    85    41    86 1   
    86    42    86 1   
    87    43    86 1   
@<TRIPOS>SUBSTRUCTURE
     1 POU         1 TEMP              0 ****  ****    0 ROOT
