@<TRIPOS>MOLECULE
POU
   86    87     1     0     0
SMALL
abcg2


@<TRIPOS>ATOM
      1 C27          5.0580    53.4710    49.5630 c3         1 POU      -0.089100
      2 C16         -0.9920    47.6060    47.1270 c3         1 POU       0.142900
      3 C17         -7.0400    52.9770    42.9340 c3         1 POU       0.142900
      4 C25          2.4130    49.4180    48.6600 c3         1 POU      -0.049900
      5 C18         -4.0500    52.1870    48.4610 c3         1 POU      -0.085100
      6 C19         -4.6230    54.4430    47.5350 c3         1 POU      -0.085100
      7 C22          4.3430    50.8560    48.0570 c2         1 POU      -0.194200
      8 C26          5.9290    52.7370    48.5480 c3         1 POU      -0.070400
      9 C24          6.0270    51.4550    46.3650 c3         1 POU       0.163600
     10 C12         -1.0990    52.7760    47.8090 c3         1 POU      -0.069400
     11 C14          1.3900    52.5070    48.4440 c3         1 POU      -0.099400
     12 C4          -2.4790    49.3420    44.9520 c3         1 POU      -0.092400
     13 C6          -4.5130    50.5820    44.0960 c6         1 POU      -0.099400
     14 C21          3.0270    50.6370    48.0290 c2         1 POU      -0.136400
     15 O1           2.2830    50.4120    44.9280 o          1 POU      -0.495000
     16 O24          6.6970    52.5440    45.7210 oh         1 POU      -0.674000
     17 O11         -2.2290    54.4210    49.0680 oh         1 POU      -0.673000
     18 O2           0.1400    49.5360    43.5320 oh         1 POU      -0.703000
     19 O8          -6.0650    52.0450    46.1850 oh         1 POU      -0.715000
     20 O91         -2.9870    53.5180    45.0560 oh         1 POU      -0.700000
     21 O13          0.5840    53.9870    46.6390 os         1 POU      -0.480000
     22 O3          -0.5540    48.1540    45.8910 os         1 POU      -0.452000
     23 O7          -6.4720    51.8030    43.5070 os         1 POU      -0.475000
     24 O15          0.9910    50.9150    46.7070 os         1 POU      -0.441100
     25 O9          -3.1790    51.3800    45.9710 os         1 POU      -0.488000
     26 C1           1.2040    50.4870    45.4750 c          1 POU       0.575100
     27 C23          5.1190    52.0000    47.4670 c3         1 POU      -0.030500
     28 C11         -2.2250    53.8020    47.7690 c3         1 POU       0.168300
     29 C13          0.2740    53.4330    47.9220 c3         1 POU       0.173300
     30 C5          -3.1250    50.6960    44.7040 c6         1 POU       0.177300
     31 C2          -0.1010    50.2000    44.7550 c3         1 POU       0.117300
     32 C8          -5.1320    52.6840    45.3240 c6         1 POU       0.133300
     33 C15          2.0630    51.6170    47.4060 c3         1 POU       0.225500
     34 C3          -1.1050    49.4390    45.6140 c3         1 POU       0.176300
     35 C7          -5.1280    51.9620    43.9670 c6         1 POU       0.132300
     36 C10         -3.6550    53.2510    47.4280 c3         1 POU      -0.055000
     37 C9          -3.7160    52.6870    45.9560 c6         1 POU       0.411000
     38 H1           5.6700    53.9920    50.3010 hc         1 POU       0.031033
     39 H2           4.4250    54.2120    49.0680 hc         1 POU       0.031033
     40 H3           4.4010    52.7810    50.0970 hc         1 POU       0.031033
     41 H4           1.6710    55.3930    45.6630 h1         1 POU       0.032033
     42 H5           1.2920    55.8050    47.3550 h1         1 POU       0.032033
     43 H6           2.5520    54.6030    46.9870 h1         1 POU       0.032033
     44 H7          -0.4770    46.6550    47.2550 h1         1 POU       0.032033
     45 H8          -0.7370    48.2700    47.9600 h1         1 POU       0.032033
     46 H9          -2.0720    47.4290    47.1330 h1         1 POU       0.032033
     47 H10         -8.0180    52.6980    42.5470 h1         1 POU       0.035700
     48 H11         -7.1640    53.7740    43.6730 h1         1 POU       0.035700
     49 H12         -6.4160    53.3470    42.1140 h1         1 POU       0.035700
     50 H13          3.1690    48.8320    49.1800 hc         1 POU       0.044700
     51 H14          1.6310    49.6890    49.3740 hc         1 POU       0.044700
     52 H15          1.9410    48.7810    47.9070 hc         1 POU       0.044700
     53 H16         -3.9580    52.6130    49.4610 hc         1 POU       0.045367
     54 H17         -5.0780    51.8690    48.3120 hc         1 POU       0.045367
     55 H18         -3.4100    51.3090    48.4000 hc         1 POU       0.045367
     56 H19         -4.5820    54.8680    48.5360 hc         1 POU       0.045367
     57 H20         -4.3670    55.2260    46.8180 hc         1 POU       0.045367
     58 H21         -5.6500    54.1310    47.3600 hc         1 POU       0.045367
     59 H22          4.9580    50.1190    48.5700 ha         1 POU       0.171000
     60 H23          6.5700    52.0110    49.0600 hc         1 POU       0.048200
     61 H24          6.5930    53.4490    48.0540 hc         1 POU       0.048200
     62 H25          5.4220    50.9040    45.6380 h1         1 POU       0.030700
     63 H26          6.7570    50.7600    46.7980 h1         1 POU       0.030700
     64 H27         -1.2530    52.1220    48.6690 hc         1 POU       0.070700
     65 H28         -1.1270    52.1440    46.9280 hc         1 POU       0.070700
     66 H29          0.9810    51.8980    49.2520 hc         1 POU       0.060200
     67 H30          2.1860    53.1090    48.8840 hc         1 POU       0.060200
     68 H31         -3.1350    48.7490    45.5930 hc         1 POU       0.067700
     69 H32         -2.3880    48.8190    43.9980 hc         1 POU       0.067700
     70 H33         -5.1430    49.9560    44.7320 hc         1 POU       0.068200
     71 H34         -4.4470    50.1140    43.1130 hc         1 POU       0.068200
     72 H35          7.2540    52.1830    45.0220 ho         1 POU       0.443000
     73 H36         -2.5550    55.3230    48.9820 ho         1 POU       0.441000
     74 H37          1.0750    49.6750    43.3160 ho         1 POU       0.530000
     75 H38         -6.8050    51.7790    45.6190 ho         1 POU       0.520000
     76 H39         -2.0470    53.4730    45.2730 ho         1 POU       0.465000
     77 H40          4.4460    52.7230    47.0010 hc         1 POU       0.059700
     78 H41         -1.9800    54.5720    47.0340 h1         1 POU       0.038700
     79 H42          0.1920    54.2580    48.6380 h1         1 POU       0.047700
     80 H43         -2.5000    51.2810    44.0240 h1         1 POU       0.044700
     81 H44         -0.5180    51.2000    44.5670 h1         1 POU       0.065700
     82 H45         -5.4180    53.7270    45.1710 h1         1 POU       0.052700
     83 H46          2.5610    52.2300    46.6600 h1         1 POU       0.071700
     84 H47         -1.2070    49.9910    46.5480 h1         1 POU       0.067700
     85 H48         -4.5660    52.5600    43.2450 h1         1 POU       0.062700
     86 C20          1.5800    54.9960    46.6730 c3         1 POU       0.143900
@<TRIPOS>BOND
     1     1     8 1   
     2     1    38 1   
     3     1    39 1   
     4     1    40 1   
     5     2    22 1   
     6     2    44 1   
     7     2    45 1   
     8     2    46 1   
     9     3    23 1   
    10     3    47 1   
    11     3    48 1   
    12     3    49 1   
    13     4    14 1   
    14     4    50 1   
    15     4    51 1   
    16     4    52 1   
    17     5    36 1   
    18     5    53 1   
    19     5    54 1   
    20     5    55 1   
    21     6    36 1   
    22     6    56 1   
    23     6    57 1   
    24     6    58 1   
    25     7    14 2   
    26     7    27 1   
    27     7    59 1   
    28     8    27 1   
    29     8    60 1   
    30     8    61 1   
    31     9    16 1   
    32     9    27 1   
    33     9    62 1   
    34     9    63 1   
    35    10    28 1   
    36    10    29 1   
    37    10    64 1   
    38    10    65 1   
    39    11    29 1   
    40    11    33 1   
    41    11    66 1   
    42    11    67 1   
    43    12    30 1   
    44    12    34 1   
    45    12    68 1   
    46    12    69 1   
    47    13    30 1   
    48    13    35 1   
    49    13    70 1   
    50    13    71 1   
    51    14    33 1   
    52    15    26 2   
    53    16    72 1   
    54    17    28 1   
    55    17    73 1   
    56    18    31 1   
    57    18    74 1   
    58    19    32 1   
    59    19    75 1   
    60    20    37 1   
    61    20    76 1   
    62    21    29 1   
    63    21    86 1   
    64    22    34 1   
    65    23    35 1   
    66    24    26 1   
    67    24    33 1   
    68    25    30 1   
    69    25    37 1   
    70    26    31 1   
    71    27    77 1   
    72    28    36 1   
    73    28    78 1   
    74    29    79 1   
    75    30    80 1   
    76    31    34 1   
    77    31    81 1   
    78    32    35 1   
    79    32    37 1   
    80    32    82 1   
    81    33    83 1   
    82    34    84 1   
    83    35    85 1   
    84    36    37 1   
    85    41    86 1   
    86    42    86 1   
    87    43    86 1   
@<TRIPOS>SUBSTRUCTURE
     1 POU         1 TEMP              0 ****  ****    0 ROOT
