@<TRIPOS>MOLECULE
POV
  134   133     1     0     0
SMALL
No Charge or Current Charge


@<TRIPOS>ATOM
      1 N           -4.2010    -1.8420    -1.0580 n4         1 POV      -0.484000
      2 P           -0.3340    -3.2850    -0.9110 p5         1 POV       1.383800
      3 C1           0.2250    -5.4380     0.5410 c3         1 POV       0.211600
      4 C2           0.8740    -5.7740     1.9260 c3         1 POV       0.172300
      5 C3           0.1480    -5.1680     3.1610 c3         1 POV       0.168600
      6 C210         8.9220     2.2290    -3.3890 c2         1 POV      -0.219200
      7 C310        -8.4180     4.0740    -0.4730 c3         1 POV      -0.074400
      8 C11         -2.6460    -3.5010     0.3710 c3         1 POV       0.217600
      9 O11          0.5760    -4.1020     0.1360 os         1 POV      -0.575400
     10 C211         8.3630     3.0470    -2.2390 c3         1 POV      -0.042200
     11 C311        -9.9410     4.2720    -0.6300 c3         1 POV      -0.074400
     12 C12         -3.8800    -2.5700     0.2670 c3         1 POV       0.082600
     13 O12         -1.4650    -2.7380     0.0970 os         1 POV      -0.592400
     14 C212         9.4610     3.8520    -1.5140 c3         1 POV      -0.072400
     15 C312       -10.3050     5.3540    -1.6720 c3         1 POV      -0.074400
     16 C13         -4.2370    -2.8390    -2.2250 c3         1 POV       0.071900
     17 O13          0.4340    -2.1440    -1.4880 o          1 POV      -0.810000
     18 C213         8.9200     4.6980    -0.3400 c3         1 POV      -0.074400
     19 C313       -11.8280     5.5400    -1.8440 c3         1 POV      -0.074400
     20 C14         -5.5760    -1.1760    -0.9310 c3         1 POV       0.071900
     21 O14         -0.8920    -4.1640    -1.9780 o          1 POV      -0.810000
     22 C214        10.0210     5.5120     0.3740 c3         1 POV      -0.074400
     23 C314       -12.1910     6.6170    -2.8900 c3         1 POV      -0.075400
     24 C15         -3.1580    -0.7530    -1.3480 c3         1 POV       0.071900
     25 C215         9.4810     6.3610     1.5470 c3         1 POV      -0.074400
     26 C315       -13.7140     6.7980    -3.0670 c3         1 POV      -0.074400
     27 C216        10.5810     7.1840     2.2540 c3         1 POV      -0.075400
     28 C316       -14.0780     7.8710    -4.1110 c3         1 POV      -0.089100
     29 C217        10.0390     8.0350     3.4240 c3         1 POV      -0.074400
     30 C218        11.1340     8.8600     4.1280 c3         1 POV      -0.088100
     31 O21          2.2590    -5.3410     1.9560 os         1 POV      -0.432100
     32 C22          4.5420    -5.2910     1.2120 c3         1 POV      -0.136400
     33 O22          2.9420    -6.9680     0.4810 o          1 POV      -0.493000
     34 C23          4.7070    -4.2890     0.0450 c3         1 POV      -0.067400
     35 C24          6.0600    -3.5440     0.0710 c3         1 POV      -0.075400
     36 C25          6.2260    -2.5540    -1.1020 c3         1 POV      -0.074400
     37 C26          7.5710    -1.7960    -1.0700 c3         1 POV      -0.074400
     38 C27          7.7360    -0.8110    -2.2470 c3         1 POV      -0.073400
     39 C28          9.0740    -0.0430    -2.2150 c3         1 POV      -0.043200
     40 C29          9.2090     0.9150    -3.3840 c2         1 POV      -0.212200
     41 C31         -0.5590    -3.0230     4.0160 c          1 POV       0.597100
     42 O31         -0.0940    -3.7620     2.9630 os         1 POV      -0.413100
     43 C32         -0.8580    -1.5780     3.6030 c3         1 POV      -0.145400
     44 O32         -0.7110    -3.4510     5.1520 o          1 POV      -0.500000
     45 C33         -2.3810    -1.3050     3.5510 c3         1 POV      -0.070400
     46 C34         -2.7430    -0.0270     2.7640 c3         1 POV      -0.070400
     47 C35         -4.2610     0.2590     2.7340 c3         1 POV      -0.079400
     48 C36         -4.6340     1.4270     1.7960 c3         1 POV      -0.072400
     49 C37         -6.1560     1.6720     1.7080 c3         1 POV      -0.075400
     50 C38         -6.5280     2.7710     0.6900 c3         1 POV      -0.073400
     51 C39         -8.0510     2.9870     0.5600 c3         1 POV      -0.074400
     52 H29          9.5980     0.4470    -4.2910 ha         1 POV       0.165000
     53 H1           0.5750    -6.1590    -0.2080 h1         1 POV       0.041700
     54 H1A         -0.8620    -5.5610     0.6220 h1         1 POV       0.041700
     55 H2           0.8290    -6.8630     2.0540 h1         1 POV       0.060700
     56 H3          -0.8020    -5.6960     3.3140 h1         1 POV       0.054200
     57 H3A          0.7730    -5.3370     4.0480 h1         1 POV       0.054200
     58 H310        -7.9890     3.8040    -1.4470 hc         1 POV       0.035700
     59 H31A        -7.9590     5.0250    -0.1740 hc         1 POV       0.035700
     60 H210         9.0750     2.8070    -4.3030 ha         1 POV       0.164000
     61 H11         -2.6000    -3.9180     1.3850 h1         1 POV       0.055200
     62 H11A        -2.7710    -4.3390    -0.3260 h1         1 POV       0.055200
     63 H211         7.5980     3.7360    -2.6170 hc         1 POV       0.043700
     64 H21A         7.8540     2.4020    -1.5120 hc         1 POV       0.043700
     65 H311       -10.4000     3.3200    -0.9260 hc         1 POV       0.039200
     66 H31B       -10.3720     4.5480     0.3410 hc         1 POV       0.039200
     67 H12         -3.7780    -1.8000     1.0300 hx         1 POV       0.078200
     68 H12A        -4.7580    -3.1680     0.5170 hx         1 POV       0.078200
     69 H22          4.6210    -4.7240     2.1480 hc         1 POV       0.070700
     70 H212        10.2230     3.1570    -1.1380 hc         1 POV       0.039200
     71 H22A         5.3290    -6.0500     1.1510 hc         1 POV       0.070700
     72 H21B         9.9580     4.5110    -2.2370 hc         1 POV       0.039200
     73 H32         -0.4000    -0.8950     4.3270 hc         1 POV       0.070700
     74 H312        -9.8550     6.3090    -1.3710 hc         1 POV       0.036200
     75 H32A        -0.4330    -1.4010     2.6080 hc         1 POV       0.070700
     76 H31C        -9.8640     5.0830    -2.6400 hc         1 POV       0.036200
     77 H13         -4.9810    -3.6110    -2.0180 hx         1 POV       0.095811
     78 H13A        -4.5020    -2.3100    -3.1430 hx         1 POV       0.095811
     79 H13B        -3.2520    -3.2970    -2.3400 hx         1 POV       0.095811
     80 H23          4.6090    -4.8270    -0.9070 hc         1 POV       0.054700
     81 H213         8.1510     5.3850    -0.7160 hc         1 POV       0.036700
     82 H23A         3.8910    -3.5560     0.0810 hc         1 POV       0.054700
     83 H21C         8.4320     4.0360     0.3860 hc         1 POV       0.036700
     84 H33         -2.8840    -2.1610     3.0840 hc         1 POV       0.059700
     85 H313       -12.2770     4.5840    -2.1410 hc         1 POV       0.037700
     86 H33A        -2.7710    -1.2330     4.5740 hc         1 POV       0.059700
     87 H31D       -12.2690     5.8140    -0.8760 hc         1 POV       0.037700
     88 H14         -5.5540    -0.4620    -0.1060 hx         1 POV       0.095811
     89 H14A        -5.8120    -0.6550    -1.8610 hx         1 POV       0.095811
     90 H14B        -6.3310    -1.9400    -0.7370 hx         1 POV       0.095811
     91 H24          6.1520    -2.9990     1.0190 hc         1 POV       0.035200
     92 H214        10.7910     4.8260     0.7510 hc         1 POV       0.037700
     93 H24A         6.8760    -4.2770     0.0420 hc         1 POV       0.035200
     94 H21D        10.5100     6.1730    -0.3530 hc         1 POV       0.037700
     95 H34         -2.2230     0.8330     3.2050 hc         1 POV       0.018700
     96 H314       -11.7460     7.5750    -2.5900 hc         1 POV       0.036700
     97 H34A        -2.3750    -0.1290     1.7350 hc         1 POV       0.018700
     98 H31E       -11.7460     6.3460    -3.8560 hc         1 POV       0.036700
     99 H15         -2.1860    -1.2170    -1.5190 hx         1 POV       0.095811
    100 H15A        -3.4550    -0.1960    -2.2390 hx         1 POV       0.095811
    101 H15B        -3.0940    -0.0780    -0.4930 hx         1 POV       0.095811
    102 H25          6.1430    -3.1010    -2.0500 hc         1 POV       0.040700
    103 H215         8.7070     7.0430     1.1710 hc         1 POV       0.036700
    104 H25A         5.4040    -1.8280    -1.0800 hc         1 POV       0.040700
    105 H21E         8.9990     5.7000     2.2780 hc         1 POV       0.036700
    106 H35         -4.7990    -0.6410     2.4140 hc         1 POV       0.049200
    107 H315       -14.1620     5.8420    -3.3680 hc         1 POV       0.037200
    108 H35A        -4.6060     0.4860     3.7510 hc         1 POV       0.049200
    109 H31F       -14.1630     7.0710    -2.1030 hc         1 POV       0.037200
    110 H26          7.6520    -1.2450    -0.1250 hc         1 POV       0.035700
    111 H216        11.3540     6.5030     2.6320 hc         1 POV       0.036700
    112 H26A         8.3950    -2.5220    -1.0890 hc         1 POV       0.035700
    113 H21F        11.0640     7.8440     1.5230 hc         1 POV       0.036700
    114 H36         -4.1390     2.3430     2.1430 hc         1 POV       0.026200
    115 H316       -15.1670     7.9620    -4.2020 hc         1 POV       0.031700
    116 H36A        -4.2480     1.2180     0.7920 hc         1 POV       0.026200
    117 H31G       -13.6750     8.8490    -3.8190 hc         1 POV       0.031700
    118 H31H       -13.6720     7.6090    -5.0960 hc         1 POV       0.031700
    119 H27          7.6620    -1.3610    -3.1930 hc         1 POV       0.040200
    120 H217         9.2650     8.7170     3.0500 hc         1 POV       0.036200
    121 H27A         6.9100    -0.0890    -2.2320 hc         1 POV       0.040200
    122 H21G         9.5590     7.3780     4.1610 hc         1 POV       0.036200
    123 H37         -6.6570     0.7380     1.4250 hc         1 POV       0.043700
    124 H37A        -6.5360     1.9500     2.6990 hc         1 POV       0.043700
    125 H28          9.1560     0.4940    -1.2620 hc         1 POV       0.043700
    126 H218        11.9070     8.2030     4.5460 hc         1 POV       0.031033
    127 H28A         9.9040    -0.7590    -2.2290 hc         1 POV       0.043700
    128 H21H        11.6110     9.5530     3.4240 hc         1 POV       0.031033
    129 H21J        10.7030     9.4460     4.9480 hc         1 POV       0.031033
    130 H38         -6.0520     3.7140     0.9880 hc         1 POV       0.032700
    131 H38A        -6.1200     2.5030    -0.2930 hc         1 POV       0.032700
    132 H39         -8.4620     3.2660     1.5390 hc         1 POV       0.040700
    133 H39A        -8.5250     2.0410     0.2710 hc         1 POV       0.040700
    134 C21          3.1740    -5.9740     1.1570 c          1 POV       0.611100
@<TRIPOS>BOND
     1     1    12 1   
     2     1    16 1   
     3     1    20 1   
     4     1    24 1   
     5     2     9 1   
     6     2    13 1   
     7     2    17 1   
     8     2    21 1   
     9     3     4 1   
    10     3     9 1   
    11     3    53 1   
    12     3    54 1   
    13     4     5 1   
    14     4    31 1   
    15     4    55 1   
    16     5    42 1   
    17     5    56 1   
    18     5    57 1   
    19     6    10 1   
    20     6    40 2   
    21     6    60 1   
    22     7    11 1   
    23     7    51 1   
    24     7    58 1   
    25     7    59 1   
    26     8    12 1   
    27     8    13 1   
    28     8    61 1   
    29     8    62 1   
    30    10    14 1   
    31    10    63 1   
    32    10    64 1   
    33    11    15 1   
    34    11    65 1   
    35    11    66 1   
    36    12    67 1   
    37    12    68 1   
    38    14    18 1   
    39    14    70 1   
    40    14    72 1   
    41    15    19 1   
    42    15    74 1   
    43    15    76 1   
    44    16    77 1   
    45    16    78 1   
    46    16    79 1   
    47    18    22 1   
    48    18    81 1   
    49    18    83 1   
    50    19    23 1   
    51    19    85 1   
    52    19    87 1   
    53    20    88 1   
    54    20    89 1   
    55    20    90 1   
    56    22    25 1   
    57    22    92 1   
    58    22    94 1   
    59    23    26 1   
    60    23    96 1   
    61    23    98 1   
    62    24    99 1   
    63    24   100 1   
    64    24   101 1   
    65    25    27 1   
    66    25   103 1   
    67    25   105 1   
    68    26    28 1   
    69    26   107 1   
    70    26   109 1   
    71    27    29 1   
    72    27   111 1   
    73    27   113 1   
    74    28   115 1   
    75    28   117 1   
    76    28   118 1   
    77    29    30 1   
    78    29   120 1   
    79    29   122 1   
    80    30   126 1   
    81    30   128 1   
    82    30   129 1   
    83    31   134 1   
    84    32    34 1   
    85    32    69 1   
    86    32    71 1   
    87    32   134 1   
    88    33   134 2   
    89    34    35 1   
    90    34    80 1   
    91    34    82 1   
    92    35    36 1   
    93    35    91 1   
    94    35    93 1   
    95    36    37 1   
    96    36   102 1   
    97    36   104 1   
    98    37    38 1   
    99    37   110 1   
   100    37   112 1   
   101    38    39 1   
   102    38   119 1   
   103    38   121 1   
   104    39    40 1   
   105    39   125 1   
   106    39   127 1   
   107    40    52 1   
   108    41    42 1   
   109    41    43 1   
   110    41    44 2   
   111    43    45 1   
   112    43    73 1   
   113    43    75 1   
   114    45    46 1   
   115    45    84 1   
   116    45    86 1   
   117    46    47 1   
   118    46    95 1   
   119    46    97 1   
   120    47    48 1   
   121    47   106 1   
   122    47   108 1   
   123    48    49 1   
   124    48   114 1   
   125    48   116 1   
   126    49    50 1   
   127    49   123 1   
   128    49   124 1   
   129    50    51 1   
   130    50   130 1   
   131    50   131 1   
   132    51   132 1   
   133    51   133 1   
@<TRIPOS>SUBSTRUCTURE
     1 POV         1 TEMP              0 ****  ****    0 ROOT
