@<TRIPOS>MOLECULE
POV
  134   133     1     0     0
SMALL
abcg2


@<TRIPOS>ATOM
      1 N           -3.1240    -1.2300    -2.7120 n4         1 POV      -0.484000
      2 P           -0.4450    -4.3930    -2.2920 p5         1 POV       1.383800
      3 C1           0.1320    -6.0150    -0.2910 c3         1 POV       0.211600
      4 C2           0.5410    -5.9740     1.1850 c3         1 POV       0.172300
      5 C3          -0.6170    -5.7420     2.1270 c3         1 POV       0.168600
      6 C210        12.2280     0.8070    -0.1440 c2         1 POV      -0.219200
      7 C310       -10.5040     3.6710     0.4380 c3         1 POV      -0.074400
      8 C11         -2.9460    -3.8110    -2.8270 c3         1 POV       0.217600
      9 O11          0.1670    -4.7080    -0.8190 os         1 POV      -0.575400
     10 C211        11.7240     2.1290    -0.6320 c3         1 POV      -0.042200
     11 C311       -11.8620     4.2160     0.8620 c3         1 POV      -0.074400
     12 C12         -3.7850    -2.5790    -2.5710 c3         1 POV       0.082600
     13 O12         -1.9940    -4.0430    -1.8170 os         1 POV      -0.592400
     14 C212        12.4160     3.2950     0.0770 c3         1 POV      -0.072400
     15 C312       -12.3650     5.3260    -0.0530 c3         1 POV      -0.074400
     16 C13         -2.3760    -1.1250    -3.9960 c3         1 POV       0.071900
     17 O13          0.1970    -3.1250    -2.7690 o          1 POV      -0.810000
     18 C213        11.9500     4.6590    -0.4160 c3         1 POV      -0.074400
     19 C313       -13.7290     5.8770     0.3450 c3         1 POV      -0.074400
     20 C14         -4.2080    -0.2070    -2.7040 c3         1 POV       0.071900
     21 O14         -0.4650    -5.6200    -3.1480 o          1 POV      -0.810000
     22 C214        12.6470     5.8150     0.2910 c3         1 POV      -0.074400
     23 C314       -14.2210     6.9760    -0.5870 c3         1 POV      -0.075400
     24 C15         -2.2030    -0.9350    -1.5780 c3         1 POV       0.071900
     25 C215        12.1790     7.1860    -0.1790 c3         1 POV      -0.074400
     26 C315       -15.5840     7.5370    -0.2010 c3         1 POV      -0.074400
     27 C216        12.8830     8.3350     0.5320 c3         1 POV      -0.075400
     28 C316       -16.0640     8.6260    -1.1510 c3         1 POV      -0.089100
     29 C217        12.4170     9.7100     0.0700 c3         1 POV      -0.074400
     30 C218        13.1300    10.8480     0.7870 c3         1 POV      -0.088100
     31 O21          1.4870    -4.9360     1.4420 os         1 POV      -0.432100
     32 C22          3.4920    -3.7640     1.1790 c3         1 POV      -0.136400
     33 O22          3.1150    -5.9900     0.3340 o          1 POV      -0.493000
     34 C23          4.9550    -3.8510     0.7790 c3         1 POV      -0.067400
     35 C24          5.6940    -2.5510     1.0710 c3         1 POV      -0.075400
     36 C25          7.1650    -2.5990     0.6810 c3         1 POV      -0.074400
     37 C26          7.9090    -1.3100     1.0070 c3         1 POV      -0.074400
     38 C27          9.3730    -1.3380     0.5880 c3         1 POV      -0.073400
     39 C28         10.1300    -0.0720     0.9910 c3         1 POV      -0.043200
     40 C29         11.5630    -0.1090     0.5600 c2         1 POV      -0.212200
     41 C31         -2.4580    -4.2610     2.2690 c          1 POV       0.597100
     42 O31         -1.2800    -4.5480     1.7290 os         1 POV      -0.413100
     43 C32         -3.0740    -3.0680     1.5960 c3         1 POV      -0.145400
     44 O32         -2.9560    -4.9020     3.1610 o          1 POV      -0.500000
     45 C33         -4.3430    -2.5500     2.2510 c3         1 POV      -0.070400
     46 C34         -4.9280    -1.3890     1.4580 c3         1 POV      -0.070400
     47 C35         -6.2150    -0.8240     2.0430 c3         1 POV      -0.079400
     48 C36         -6.7840     0.3120     1.2010 c3         1 POV      -0.072400
     49 C37         -8.0970     0.8760     1.7300 c3         1 POV      -0.075400
     50 C38         -8.6400     2.0040     0.8620 c3         1 POV      -0.073400
     51 C39         -9.9830     2.5510     1.3300 c3         1 POV      -0.074400
     52 H29         12.1070    -1.0020     0.8600 ha         1 POV       0.165000
     53 H1           0.8130    -6.6670    -0.8420 h1         1 POV       0.041700
     54 H1A         -0.8650    -6.4640    -0.3570 h1         1 POV       0.041700
     55 H2           0.9640    -6.9490     1.4500 h1         1 POV       0.060700
     56 H3          -1.2920    -6.5980     2.0640 h1         1 POV       0.054200
     57 H3A         -0.2640    -5.6660     3.1590 h1         1 POV       0.054200
     58 H310       -10.5700     3.3070    -0.5940 hc         1 POV       0.035700
     59 H31A        -9.7750     4.4890     0.4220 hc         1 POV       0.035700
     60 H210        13.2720     0.6040    -0.3690 ha         1 POV       0.164000
     61 H11         -3.6660    -4.6350    -2.8530 h1         1 POV       0.055200
     62 H11A        -2.5080    -3.7680    -3.8290 h1         1 POV       0.055200
     63 H211        11.9090     2.2130    -1.7090 hc         1 POV       0.043700
     64 H21A        10.6430     2.2160    -0.4980 hc         1 POV       0.043700
     65 H311       -12.5920     3.4000     0.8790 hc         1 POV       0.039200
     66 H31B       -11.8020     4.5900     1.8910 hc         1 POV       0.039200
     67 H12         -4.2250    -2.6040    -1.5740 hx         1 POV       0.078200
     68 H12A        -4.6050    -2.5890    -3.2900 hx         1 POV       0.078200
     69 H22          2.9970    -2.9530     0.6340 hc         1 POV       0.070700
     70 H212        12.2360     3.2150     1.1530 hc         1 POV       0.039200
     71 H22A         3.3960    -3.5010     2.2370 hc         1 POV       0.070700
     72 H21B        13.5000     3.2100    -0.0580 hc         1 POV       0.039200
     73 H32         -2.3190    -2.2790     1.5280 hc         1 POV       0.070700
     74 H312       -11.6340     6.1420    -0.0660 hc         1 POV       0.036200
     75 H32A        -3.2730    -3.3690     0.5620 hc         1 POV       0.070700
     76 H31C       -12.4140     4.9500    -1.0810 hc         1 POV       0.036200
     77 H13         -3.0300    -1.4120    -4.8160 hx         1 POV       0.095811
     78 H13A        -2.0610    -0.0930    -4.1300 hx         1 POV       0.095811
     79 H13B        -1.5000    -1.7670    -3.9610 hx         1 POV       0.095811
     80 H23          5.4390    -4.6720     1.3160 hc         1 POV       0.054700
     81 H213        12.1210     4.7360    -1.4960 hc         1 POV       0.036700
     82 H23A         5.0380    -4.0870    -0.2850 hc         1 POV       0.054700
     83 H21C        10.8670     4.7460    -0.2750 hc         1 POV       0.036700
     84 H33         -5.0820    -3.3520     2.3210 hc         1 POV       0.059700
     85 H313       -14.4600     5.0610     0.3620 hc         1 POV       0.037700
     86 H33A        -4.1320    -2.2290     3.2740 hc         1 POV       0.059700
     87 H31D       -13.6810     6.2620     1.3700 hc         1 POV       0.037700
     88 H14         -4.8000    -0.3170    -1.7970 hx         1 POV       0.095811
     89 H14A        -3.7630     0.7830    -2.7310 hx         1 POV       0.095811
     90 H14B        -4.8460    -0.3480    -3.5720 hx         1 POV       0.095811
     91 H24          5.2050    -1.7260     0.5410 hc         1 POV       0.035200
     92 H214        12.4850     5.7280     1.3710 hc         1 POV       0.037700
     93 H24A         5.6090    -2.3160     2.1380 hc         1 POV       0.035200
     94 H21D        13.7290     5.7300     0.1420 hc         1 POV       0.037700
     95 H34         -4.1840    -0.5880     1.3820 hc         1 POV       0.018700
     96 H314       -13.4880     7.7910    -0.6070 hc         1 POV       0.036700
     97 H34A        -5.1280    -1.7220     0.4320 hc         1 POV       0.018700
     98 H31E       -14.2670     6.5890    -1.6110 hc         1 POV       0.036700
     99 H15         -1.3880    -1.6480    -1.5600 hx         1 POV       0.095811
    100 H15A        -1.8120     0.0700    -1.7100 hx         1 POV       0.095811
    101 H15B        -2.7660    -0.9760    -0.6490 hx         1 POV       0.095811
    102 H25          7.6510    -3.4370     1.1930 hc         1 POV       0.040700
    103 H215        12.3390     7.2750    -1.2590 hc         1 POV       0.036700
    104 H25A         7.2500    -2.8090    -0.3910 hc         1 POV       0.040700
    105 H21E        11.0970     7.2730    -0.0260 hc         1 POV       0.036700
    106 H35         -6.9590    -1.6240     2.1260 hc         1 POV       0.049200
    107 H315       -16.3160     6.7240    -0.1780 hc         1 POV       0.037200
    108 H35A        -6.0310    -0.4700     3.0630 hc         1 POV       0.049200
    109 H31F       -15.5370     7.9320     0.8180 hc         1 POV       0.037200
    110 H26          7.4090    -0.4670     0.5190 hc         1 POV       0.035700
    111 H216        12.7250     8.2440     1.6120 hc         1 POV       0.036700
    112 H26A         7.8430    -1.1180     2.0840 hc         1 POV       0.035700
    113 H21F        13.9640     8.2490     0.3780 hc         1 POV       0.036700
    114 H36         -6.0420     1.1160     1.1330 hc         1 POV       0.026200
    115 H316       -17.0360     9.0210    -0.8520 hc         1 POV       0.031700
    116 H36A        -6.9370    -0.0440     0.1760 hc         1 POV       0.026200
    117 H31G       -15.3630     9.4620    -1.1810 hc         1 POV       0.031700
    118 H31H       -16.1620     8.2450    -2.1690 hc         1 POV       0.031700
    119 H27          9.8650    -2.2090     1.0350 hc         1 POV       0.040200
    120 H217        12.5740     9.8010    -1.0090 hc         1 POV       0.036200
    121 H27A         9.4420    -1.4740    -0.4960 hc         1 POV       0.040200
    122 H21G        11.3370     9.7970     0.2260 hc         1 POV       0.036200
    123 H37         -8.8390     0.0720     1.7880 hc         1 POV       0.043700
    124 H37A        -7.9570     1.2360     2.7550 hc         1 POV       0.043700
    125 H28          9.6180     0.8040     0.5860 hc         1 POV       0.043700
    126 H218        12.9630    10.8000     1.8650 hc         1 POV       0.031033
    127 H28A        10.0830     0.0260     2.0820 hc         1 POV       0.043700
    128 H21H        14.2080    10.8050     0.6210 hc         1 POV       0.031033
    129 H21J        12.7810    11.8220     0.4420 hc         1 POV       0.031033
    130 H38         -7.9080     2.8190     0.8300 hc         1 POV       0.032700
    131 H38A        -8.7390     1.6480    -0.1690 hc         1 POV       0.032700
    132 H39         -9.8940     2.9160     2.3600 hc         1 POV       0.040700
    133 H39A       -10.7170     1.7380     1.3590 hc         1 POV       0.040700
    134 C21          2.7090    -5.0220     0.9250 c          1 POV       0.611100
@<TRIPOS>BOND
     1     1    12 1   
     2     1    16 1   
     3     1    20 1   
     4     1    24 1   
     5     2     9 1   
     6     2    13 1   
     7     2    17 1   
     8     2    21 1   
     9     3     4 1   
    10     3     9 1   
    11     3    53 1   
    12     3    54 1   
    13     4     5 1   
    14     4    31 1   
    15     4    55 1   
    16     5    42 1   
    17     5    56 1   
    18     5    57 1   
    19     6    10 1   
    20     6    40 2   
    21     6    60 1   
    22     7    11 1   
    23     7    51 1   
    24     7    58 1   
    25     7    59 1   
    26     8    12 1   
    27     8    13 1   
    28     8    61 1   
    29     8    62 1   
    30    10    14 1   
    31    10    63 1   
    32    10    64 1   
    33    11    15 1   
    34    11    65 1   
    35    11    66 1   
    36    12    67 1   
    37    12    68 1   
    38    14    18 1   
    39    14    70 1   
    40    14    72 1   
    41    15    19 1   
    42    15    74 1   
    43    15    76 1   
    44    16    77 1   
    45    16    78 1   
    46    16    79 1   
    47    18    22 1   
    48    18    81 1   
    49    18    83 1   
    50    19    23 1   
    51    19    85 1   
    52    19    87 1   
    53    20    88 1   
    54    20    89 1   
    55    20    90 1   
    56    22    25 1   
    57    22    92 1   
    58    22    94 1   
    59    23    26 1   
    60    23    96 1   
    61    23    98 1   
    62    24    99 1   
    63    24   100 1   
    64    24   101 1   
    65    25    27 1   
    66    25   103 1   
    67    25   105 1   
    68    26    28 1   
    69    26   107 1   
    70    26   109 1   
    71    27    29 1   
    72    27   111 1   
    73    27   113 1   
    74    28   115 1   
    75    28   117 1   
    76    28   118 1   
    77    29    30 1   
    78    29   120 1   
    79    29   122 1   
    80    30   126 1   
    81    30   128 1   
    82    30   129 1   
    83    31   134 1   
    84    32    34 1   
    85    32    69 1   
    86    32    71 1   
    87    32   134 1   
    88    33   134 2   
    89    34    35 1   
    90    34    80 1   
    91    34    82 1   
    92    35    36 1   
    93    35    91 1   
    94    35    93 1   
    95    36    37 1   
    96    36   102 1   
    97    36   104 1   
    98    37    38 1   
    99    37   110 1   
   100    37   112 1   
   101    38    39 1   
   102    38   119 1   
   103    38   121 1   
   104    39    40 1   
   105    39   125 1   
   106    39   127 1   
   107    40    52 1   
   108    41    42 1   
   109    41    43 1   
   110    41    44 2   
   111    43    45 1   
   112    43    73 1   
   113    43    75 1   
   114    45    46 1   
   115    45    84 1   
   116    45    86 1   
   117    46    47 1   
   118    46    95 1   
   119    46    97 1   
   120    47    48 1   
   121    47   106 1   
   122    47   108 1   
   123    48    49 1   
   124    48   114 1   
   125    48   116 1   
   126    49    50 1   
   127    49   123 1   
   128    49   124 1   
   129    50    51 1   
   130    50   130 1   
   131    50   131 1   
   132    51   132 1   
   133    51   133 1   
@<TRIPOS>SUBSTRUCTURE
     1 POV         1 TEMP              0 ****  ****    0 ROOT
