@<TRIPOS>MOLECULE
POW
   56    58     1     0     0
SMALL
abcg2


@<TRIPOS>ATOM
      1 C2          20.2870   -19.4640     7.4720 ca         1 POW       0.000000
      2 C3          21.4050   -18.8680     8.0630 ca         1 POW      -0.153000
      3 C4          22.3270   -19.6280     8.7600 ca         1 POW      -0.082000
      4 C5          22.1570   -21.0020     8.8850 ca         1 POW      -0.140000
      5 C11         16.4660   -17.9160     4.9950 c3         1 POW       0.160600
      6 C12         15.9140   -16.5110     4.8580 c3         1 POW       0.201300
      7 C17         14.1480   -15.2360     9.1300 ca         1 POW      -0.001000
      8 C18         13.6640   -14.0160     9.6100 ca         1 POW      -0.157000
      9 C19         13.0290   -13.9400    10.8360 ca         1 POW      -0.082000
     10 C20         12.8680   -15.0760    11.6180 ca         1 POW      -0.142000
     11 C21         13.3530   -16.2860    11.1460 ca         1 POW      -0.082000
     12 C22         13.9880   -16.3800     9.9140 ca         1 POW      -0.157000
     13 C23         14.5260   -16.4680     4.2120 c3         1 POW       0.161800
     14 C25         13.0570   -18.2950     4.9430 c6         1 POW       0.188800
     15 C26         12.4770   -18.8040     6.2640 c6         1 POW      -0.076900
     16 C27         11.7290   -17.6790     6.9920 c6         1 POW      -0.067400
     17 C28         11.2030   -16.6660     5.9850 c6         1 POW      -0.076900
     18 C29         12.3580   -16.0090     5.2220 c6         1 POW       0.188800
     19 C6          21.0480   -21.5930     8.2990 ca         1 POW      -0.082000
     20 C7          20.1130   -20.8440     7.5950 ca         1 POW      -0.153000
     21 C8          18.2550   -18.9190     6.1570 c          1 POW       0.659100
     22 N1          19.4170   -18.6130     6.7870 ns         1 POW      -0.138000
     23 N16         14.7490   -15.2160     7.8710 ns         1 POW      -0.143000
     24 N24         13.4880   -16.9200     5.1050 n3         1 POW      -0.768600
     25 O10         17.7450   -17.8160     5.6110 os         1 POW      -0.456100
     26 O13         15.8790   -15.7500     6.0660 os         1 POW      -0.469100
     27 O15         15.4960   -17.3600     7.6170 o          1 POW      -0.505000
     28 O9          17.7480   -20.0150     6.0820 o          1 POW      -0.522000
     29 H1          21.5520   -17.7980     7.9740 ha         1 POW       0.128500
     30 H2          23.1840   -19.1420     9.2060 ha         1 POW       0.112000
     31 H3          22.8760   -21.5980     9.4290 ha         1 POW       0.114000
     32 H4          15.8140   -18.5710     5.5650 h1         1 POW       0.070700
     33 H5          16.5710   -18.3270     3.9860 h1         1 POW       0.070700
     34 H6          16.5970   -15.9460     4.2190 h1         1 POW       0.080700
     35 H7          13.7840   -13.1190     9.0140 ha         1 POW       0.128500
     36 H8          12.6620   -12.9820    11.1830 ha         1 POW       0.112500
     37 H9          12.3720   -15.0190    12.5780 ha         1 POW       0.114000
     38 H10         13.2370   -17.1840    11.7390 ha         1 POW       0.112500
     39 H11         14.3410   -17.3390     9.5710 ha         1 POW       0.128500
     40 H12         14.5530   -17.0300     3.2680 h1         1 POW       0.045200
     41 H13         14.3370   -15.4300     3.9320 h1         1 POW       0.045200
     42 H14         12.3170   -18.3920     4.1320 h1         1 POW       0.027450
     43 H15         13.9030   -18.9140     4.6410 h1         1 POW       0.027450
     44 H16         11.8080   -19.6430     6.0610 hc         1 POW       0.044950
     45 H17         13.2830   -19.1820     6.8960 hc         1 POW       0.044950
     46 H18         12.3970   -17.1770     7.6940 hc         1 POW       0.047200
     47 H19         10.9080   -18.0880     7.5850 hc         1 POW       0.047200
     48 H20         10.6100   -15.8930     6.4760 hc         1 POW       0.044950
     49 H21         10.5290   -17.1690     5.2860 hc         1 POW       0.044950
     50 H22         11.9970   -15.6760     4.2360 h1         1 POW       0.027450
     51 H23         12.6910   -15.1130     5.7550 h1         1 POW       0.027450
     52 H24         20.8960   -22.6610     8.3860 ha         1 POW       0.112000
     53 H25         19.2640   -21.3390     7.1540 ha         1 POW       0.128500
     54 H26         19.6850   -17.6400     6.7740 hn         1 POW       0.165000
     55 H27         14.7180   -14.3310     7.3890 hn         1 POW       0.159000
     56 C14         15.3570   -16.2340     7.2040 c          1 POW       0.677100
@<TRIPOS>BOND
     1     1     2 ar  
     2     1    20 ar  
     3     1    22 1   
     4     2     3 ar  
     5     2    29 1   
     6     3     4 ar  
     7     3    30 1   
     8     4    19 ar  
     9     4    31 1   
    10     5     6 1   
    11     5    25 1   
    12     5    32 1   
    13     5    33 1   
    14     6    13 1   
    15     6    26 1   
    16     6    34 1   
    17     7     8 ar  
    18     7    12 ar  
    19     7    23 1   
    20     8     9 ar  
    21     8    35 1   
    22     9    10 ar  
    23     9    36 1   
    24    10    11 ar  
    25    10    37 1   
    26    11    12 ar  
    27    11    38 1   
    28    12    39 1   
    29    13    24 1   
    30    13    40 1   
    31    13    41 1   
    32    14    15 1   
    33    14    24 1   
    34    14    42 1   
    35    14    43 1   
    36    15    16 1   
    37    15    44 1   
    38    15    45 1   
    39    16    17 1   
    40    16    46 1   
    41    16    47 1   
    42    17    18 1   
    43    17    48 1   
    44    17    49 1   
    45    18    24 1   
    46    18    50 1   
    47    18    51 1   
    48    19    20 ar  
    49    19    52 1   
    50    20    53 1   
    51    21    22 1   
    52    21    25 1   
    53    21    28 2   
    54    22    54 1   
    55    23    55 1   
    56    23    56 1   
    57    26    56 1   
    58    27    56 2   
@<TRIPOS>SUBSTRUCTURE
     1 POW         1 TEMP              0 ****  ****    0 ROOT
