@<TRIPOS>MOLECULE
POW
   56    58     1     0     0
SMALL
No Charge or Current Charge


@<TRIPOS>ATOM
      1 C2          20.7850   -19.5430     7.3780 ca         1 POW       0.000000
      2 C3          21.9230   -18.8610     7.8510 ca         1 POW      -0.153000
      3 C4          23.0400   -19.5700     8.3250 ca         1 POW      -0.082000
      4 C5          23.0290   -20.9730     8.3300 ca         1 POW      -0.140000
      5 C11         16.4370   -18.0980     5.5580 c3         1 POW       0.160600
      6 C12         15.8640   -16.6740     5.2970 c3         1 POW       0.201300
      7 C17         14.1260   -15.0540     9.6650 ca         1 POW      -0.001000
      8 C18         14.3500   -13.8820    10.4130 ca         1 POW      -0.157000
      9 C19         13.6740   -13.6660    11.6260 ca         1 POW      -0.082000
     10 C20         12.7610   -14.6210    12.1000 ca         1 POW      -0.142000
     11 C21         12.5220   -15.7890    11.3580 ca         1 POW      -0.082000
     12 C22         13.1990   -16.0060    10.1450 ca         1 POW      -0.157000
     13 C23         14.5580   -16.5770     4.4340 c3         1 POW       0.161800
     14 C25         13.0030   -18.4280     5.1310 c6         1 POW       0.188800
     15 C26         11.7720   -18.7580     6.0240 c6         1 POW      -0.076900
     16 C27         10.8390   -17.5390     6.2460 c6         1 POW      -0.067400
     17 C28         10.7100   -16.7170     4.9430 c6         1 POW      -0.076900
     18 C29         12.0950   -16.2710     4.3900 c6         1 POW       0.188800
     19 C6          21.9010   -21.6660     7.8620 ca         1 POW      -0.082000
     20 C7          20.7830   -20.9560     7.3870 ca         1 POW      -0.153000
     21 C8          18.4570   -19.1070     6.3970 c          1 POW       0.659100
     22 N1          19.6920   -18.7620     6.9140 ns         1 POW      -0.138000
     23 N16         14.8350   -15.2080     8.4440 ns         1 POW      -0.143000
     24 N24         13.2480   -16.9610     5.0420 n3         1 POW      -0.768600
     25 O10         17.7680   -17.9630     6.1020 os         1 POW      -0.456100
     26 O13         15.7310   -15.8760     6.5130 os         1 POW      -0.469100
     27 O15         14.5530   -17.4120     7.7900 o          1 POW      -0.505000
     28 O9          18.0290   -20.2390     6.2210 o          1 POW      -0.522000
     29 H1          21.9440   -17.7730     7.8520 ha         1 POW       0.128500
     30 H2          23.9130   -19.0310     8.6870 ha         1 POW       0.112000
     31 H3          23.8930   -21.5240     8.6960 ha         1 POW       0.114000
     32 H4          15.8010   -18.6800     6.2310 h1         1 POW       0.070700
     33 H5          16.4730   -18.6360     4.6010 h1         1 POW       0.070700
     34 H6          16.6260   -16.1880     4.6730 h1         1 POW       0.080700
     35 H7          15.0550   -13.1340    10.0550 ha         1 POW       0.128500
     36 H8          13.8580   -12.7580    12.1980 ha         1 POW       0.112500
     37 H9          12.2370   -14.4550    13.0380 ha         1 POW       0.114000
     38 H10         11.8090   -16.5260    11.7220 ha         1 POW       0.112500
     39 H11         12.9810   -16.9110     9.5880 ha         1 POW       0.128500
     40 H12         14.7140   -17.1470     3.5080 h1         1 POW       0.045200
     41 H13         14.4980   -15.5240     4.1250 h1         1 POW       0.045200
     42 H14         12.8260   -18.8290     4.1210 h1         1 POW       0.027450
     43 H15         13.8700   -18.9660     5.5300 h1         1 POW       0.027450
     44 H16         11.2100   -19.5830     5.5660 hc         1 POW       0.044950
     45 H17         12.1150   -19.1260     7.0000 hc         1 POW       0.044950
     46 H18         11.2500   -16.8990     7.0400 hc         1 POW       0.047200
     47 H19          9.8510   -17.8720     6.5920 hc         1 POW       0.047200
     48 H20         10.0740   -15.8380     5.1090 hc         1 POW       0.044950
     49 H21         10.2000   -17.3260     4.1840 hc         1 POW       0.044950
     50 H22         12.1100   -16.4430     3.3030 h1         1 POW       0.027450
     51 H23         12.1930   -15.1850     4.5370 h1         1 POW       0.027450
     52 H24         21.8920   -22.7540     7.8660 ha         1 POW       0.112000
     53 H25         19.9290   -21.5230     7.0330 ha         1 POW       0.128500
     54 H26         19.8420   -17.7640     6.9730 hn         1 POW       0.165000
     55 H27         15.3020   -14.3700     8.1250 hn         1 POW       0.159000
     56 C14         14.9840   -16.2860     7.5920 c          1 POW       0.677100
@<TRIPOS>BOND
     1     1     2 ar  
     2     1    20 ar  
     3     1    22 1   
     4     2     3 ar  
     5     2    29 1   
     6     3     4 ar  
     7     3    30 1   
     8     4    19 ar  
     9     4    31 1   
    10     5     6 1   
    11     5    25 1   
    12     5    32 1   
    13     5    33 1   
    14     6    13 1   
    15     6    26 1   
    16     6    34 1   
    17     7     8 ar  
    18     7    12 ar  
    19     7    23 1   
    20     8     9 ar  
    21     8    35 1   
    22     9    10 ar  
    23     9    36 1   
    24    10    11 ar  
    25    10    37 1   
    26    11    12 ar  
    27    11    38 1   
    28    12    39 1   
    29    13    24 1   
    30    13    40 1   
    31    13    41 1   
    32    14    15 1   
    33    14    24 1   
    34    14    42 1   
    35    14    43 1   
    36    15    16 1   
    37    15    44 1   
    38    15    45 1   
    39    16    17 1   
    40    16    46 1   
    41    16    47 1   
    42    17    18 1   
    43    17    48 1   
    44    17    49 1   
    45    18    24 1   
    46    18    50 1   
    47    18    51 1   
    48    19    20 ar  
    49    19    52 1   
    50    20    53 1   
    51    21    22 1   
    52    21    25 1   
    53    21    28 2   
    54    22    54 1   
    55    23    55 1   
    56    23    56 1   
    57    26    56 1   
    58    27    56 2   
@<TRIPOS>SUBSTRUCTURE
     1 POW         1 TEMP              0 ****  ****    0 ROOT
