@<TRIPOS>MOLECULE
POX
   54    57     1     0     0
SMALL
No Charge or Current Charge


@<TRIPOS>ATOM
      1 C1          -5.2790    -1.2730    -0.6030 ca         1 POX      -0.093300
      2 C2          -5.1350    -1.4330     0.7920 ca         1 POX      -0.127000
      3 C3          -5.1290    -2.7170     1.3590 ca         1 POX       0.170000
      4 C7          -5.2830     0.1180    -1.2410 c3         1 POX       0.139900
      5 C8          -3.5040     2.7480     0.3860 cc         1 POX       0.359800
      6 C9          -0.1650     1.1040    -0.4860 ca         1 POX       0.256000
      7 C10         -0.7490    -0.0040    -1.1540 ca         1 POX      -0.107000
      8 C11         -2.1510    -0.1230    -1.2820 ca         1 POX      -0.106000
      9 C12         -2.9390     0.8880    -0.7180 ca         1 POX      -0.047200
     10 C13         -2.3930     1.9450    -0.0650 ca         1 POX      -0.213900
     11 C14         -1.0060     2.0960     0.0820 ca         1 POX      -0.028000
     12 C15          2.6020     4.4260    -0.3650 ca         1 POX       0.213900
     13 C16          2.1450     2.1920    -0.1930 ca         1 POX       0.435900
     14 C20          6.7630    -1.5290     0.5630 c3         1 POX       0.167600
     15 C21          6.9520    -3.0280     0.8920 c3         1 POX       0.152600
     16 C22          6.5010    -5.2420     0.0220 c3         1 POX       0.144900
     17 C4          -5.2700    -3.8530     0.5480 ca         1 POX      -0.143000
     18 C5          -5.4190    -3.7030    -0.8410 ca         1 POX      -0.086000
     19 C6          -5.4250    -2.4180    -1.4130 ca         1 POX      -0.116000
     20 F1          -4.9880    -2.8600     2.6950 f          1 POX      -0.177000
     21 N1          -4.3070     1.0590    -0.6560 na         1 POX       0.072600
     22 N2          -4.6850     2.2150     0.0290 nd         1 POX      -0.520100
     23 N4           3.8840     4.3030     0.0160 nb         1 POX      -0.304000
     24 N5           1.7130     3.4270    -0.4890 nb         1 POX      -0.291000
     25 C17          3.4630     1.9410     0.2210 ca         1 POX      -0.409900
     26 C18          4.2980     3.0650     0.2990 ca         1 POX       0.437900
     27 N7           5.1560     0.1750     0.4230 n2         1 POX      -0.397700
     28 O1           5.3650    -1.1930     0.6980 os         1 POX      -0.303000
     29 O2           6.3880    -3.8230    -0.1710 os         1 POX      -0.444000
     30 H2          -5.0280    -0.5670     1.4410 ha         1 POX       0.146000
     31 HN6          6.1830     3.8020     0.4890 hn         1 POX       0.514000
     32 HN6A         6.0310     2.0910     0.6910 hn         1 POX       0.514000
     33 H7          -5.0680     0.0330    -2.3130 h1         1 POX       0.073700
     34 H7A         -6.2870     0.5490    -1.1420 h1         1 POX       0.073700
     35 H8          -3.5250     3.6740     0.9440 h4         1 POX       0.052800
     36 H10         -0.1120    -0.7740    -1.5820 ha         1 POX       0.112000
     37 H11         -2.5970    -0.9720    -1.7960 ha         1 POX       0.121000
     38 H14         -0.5990     2.9390     0.6310 ha         1 POX       0.138000
     39 H15          2.2520     5.4300    -0.6020 h5         1 POX       0.045100
     40 H19          3.1380    -0.1830     0.7510 h4         1 POX      -0.001200
     41 H20          7.3670    -0.9360     1.2610 h1         1 POX       0.044200
     42 H20A         7.1210    -1.3290    -0.4560 h1         1 POX       0.044200
     43 H21          8.0260    -3.2340     0.9920 h1         1 POX       0.030700
     44 H21A         6.4710    -3.2560     1.8530 h1         1 POX       0.030700
     45 H22          7.5540    -5.5440     0.0990 h1         1 POX       0.029033
     46 H22A         5.9820    -5.5530     0.9390 h1         1 POX       0.029033
     47 H22B         6.0520    -5.7790    -0.8230 h1         1 POX       0.029033
     48 H4          -5.2640    -4.8430     0.9950 ha         1 POX       0.133000
     49 H5          -5.5310    -4.5800    -1.4750 ha         1 POX       0.119000
     50 H6          -5.5420    -2.3140    -2.4900 ha         1 POX       0.115000
     51 HN3          1.6830     0.2630    -0.5610 hn         1 POX       0.500000
     52 N3           1.2340     1.1580    -0.3790 nu         1 POX      -0.943900
     53 C19          3.9130     0.5470     0.5110 ce         1 POX       0.474800
     54 N6           5.5860     3.0070     0.7000 nv         1 POX      -1.061900
@<TRIPOS>BOND
     1     1     2 ar  
     2     1     4 1   
     3     1    19 ar  
     4     2     3 ar  
     5     2    30 1   
     6     3    17 ar  
     7     3    20 1   
     8     4    21 1   
     9     4    33 1   
    10     4    34 1   
    11     5    10 1   
    12     5    22 2   
    13     5    35 1   
    14     6     7 ar  
    15     6    11 ar  
    16     6    52 1   
    17     7     8 ar  
    18     7    36 1   
    19     8     9 ar  
    20     8    37 1   
    21     9    10 ar  
    22     9    21 1   
    23    10    11 ar  
    24    11    38 1   
    25    12    23 ar  
    26    12    24 ar  
    27    12    39 1   
    28    13    24 ar  
    29    13    25 ar  
    30    13    52 1   
    31    14    15 1   
    32    14    28 1   
    33    14    41 1   
    34    14    42 1   
    35    15    29 1   
    36    15    43 1   
    37    15    44 1   
    38    16    29 1   
    39    16    45 1   
    40    16    46 1   
    41    16    47 1   
    42    17    18 ar  
    43    17    48 1   
    44    18    19 ar  
    45    18    49 1   
    46    19    50 1   
    47    21    22 1   
    48    23    26 ar  
    49    25    26 ar  
    50    25    53 1   
    51    26    54 1   
    52    27    28 1   
    53    27    53 2   
    54    31    54 1   
    55    32    54 1   
    56    40    53 1   
    57    51    52 1   
@<TRIPOS>SUBSTRUCTURE
     1 POX         1 TEMP              0 ****  ****    0 ROOT
