@<TRIPOS>MOLECULE
POX
   54    57     1     0     0
SMALL
abcg2


@<TRIPOS>ATOM
      1 C1          -5.4910    -1.0870    -0.6030 ca         1 POX      -0.093300
      2 C2          -5.8910    -1.1810     0.7280 ca         1 POX      -0.127000
      3 C3          -6.0830    -2.4320     1.2770 ca         1 POX       0.170000
      4 C7          -5.2690     0.2680    -1.2260 c3         1 POX       0.139900
      5 C8          -3.3640     2.3080     0.8870 cc         1 POX       0.359800
      6 C9          -0.1280     0.9060    -0.4650 ca         1 POX       0.256000
      7 C10         -0.7600     0.0530    -1.4010 ca         1 POX      -0.107000
      8 C11         -2.1270    -0.0180    -1.5220 ca         1 POX      -0.106000
      9 C12         -2.8810     0.8140    -0.6890 ca         1 POX      -0.047200
     10 C13         -2.2710     1.6640     0.2470 ca         1 POX      -0.213900
     11 C14         -0.8790     1.7060     0.3720 ca         1 POX      -0.028000
     12 C15          2.4420     4.1410    -0.2870 ca         1 POX       0.213900
     13 C16          2.1230     1.9080    -0.2680 ca         1 POX       0.435900
     14 C20          6.9380    -1.3790     0.6750 c3         1 POX       0.167600
     15 C21          7.1850    -2.8310     0.9870 c3         1 POX       0.152600
     16 C22          7.0190    -4.9940     0.1280 c3         1 POX       0.144900
     17 C4          -5.8930    -3.5980     0.5580 ca         1 POX      -0.143000
     18 C5          -5.4940    -3.4930    -0.7650 ca         1 POX      -0.086000
     19 C6          -5.2930    -2.2450    -1.3440 ca         1 POX      -0.116000
     20 F1          -6.4760    -2.5190     2.5580 f          1 POX      -0.177000
     21 N1          -4.2190     1.0080    -0.5700 na         1 POX       0.072600
     22 N2          -4.5020     1.8960     0.3890 nd         1 POX      -0.520100
     23 N4           3.7480     4.0970    -0.1520 nb         1 POX      -0.304000
     24 N5           1.5980     3.1300    -0.3650 nb         1 POX      -0.291000
     25 C17          3.5020     1.7020    -0.0510 ca         1 POX      -0.409900
     26 C18          4.2990     2.8750    -0.0400 ca         1 POX       0.437900
     27 N7           5.2790     0.1310     0.2650 n2         1 POX      -0.397700
     28 O1           5.5390    -1.1730     0.5710 os         1 POX      -0.303000
     29 O2           6.8050    -3.6250    -0.1060 os         1 POX      -0.444000
     30 H2          -6.0520    -0.2930     1.3280 ha         1 POX       0.146000
     31 HN6          6.1300     3.7000     0.1890 hn         1 POX       0.514000
     32 HN6A         6.1030     1.9570     0.2170 hn         1 POX       0.514000
     33 H7          -5.0180     0.1610    -2.2820 h1         1 POX       0.073700
     34 H7A         -6.1720     0.8760    -1.1720 h1         1 POX       0.073700
     35 H8          -3.3420     3.0470     1.6730 h4         1 POX       0.052800
     36 H10         -0.1400    -0.5620    -2.0420 ha         1 POX       0.112000
     37 H11         -2.5830    -0.6830    -2.2440 ha         1 POX       0.121000
     38 H14         -0.4110     2.3460     1.1070 ha         1 POX       0.138000
     39 H15          2.0030     5.1320    -0.3570 h5         1 POX       0.045100
     40 H19          3.3220    -0.4290     0.3970 h4         1 POX      -0.001200
     41 H20          7.3570    -0.7700     1.4820 h1         1 POX       0.044200
     42 H20A         7.4390    -1.0950    -0.2570 h1         1 POX       0.044200
     43 H21          8.2560    -2.9450     1.2090 h1         1 POX       0.030700
     44 H21A         6.6420    -3.1220     1.8970 h1         1 POX       0.030700
     45 H22          8.0740    -5.2160     0.3310 h1         1 POX       0.029033
     46 H22A         6.4300    -5.3630     0.9750 h1         1 POX       0.029033
     47 H22B         6.7180    -5.5400    -0.7650 h1         1 POX       0.029033
     48 H4          -6.0540    -4.5630     1.0210 ha         1 POX       0.133000
     49 H5          -5.3370    -4.3900    -1.3480 ha         1 POX       0.119000
     50 H6          -4.9840    -2.1740    -2.3800 ha         1 POX       0.115000
     51 HN3          1.6750    -0.0370    -0.6400 hn         1 POX       0.500000
     52 N3           1.2740     0.8530    -0.3960 nu         1 POX      -0.943900
     53 C19          4.0290     0.3780     0.2080 ce         1 POX       0.474800
     54 N6           5.6240     2.8360     0.0910 nv         1 POX      -1.061900
@<TRIPOS>BOND
     1     1     2 ar  
     2     1     4 1   
     3     1    19 ar  
     4     2     3 ar  
     5     2    30 1   
     6     3    17 ar  
     7     3    20 1   
     8     4    21 1   
     9     4    33 1   
    10     4    34 1   
    11     5    10 1   
    12     5    22 2   
    13     5    35 1   
    14     6     7 ar  
    15     6    11 ar  
    16     6    52 1   
    17     7     8 ar  
    18     7    36 1   
    19     8     9 ar  
    20     8    37 1   
    21     9    10 ar  
    22     9    21 1   
    23    10    11 ar  
    24    11    38 1   
    25    12    23 ar  
    26    12    24 ar  
    27    12    39 1   
    28    13    24 ar  
    29    13    25 ar  
    30    13    52 1   
    31    14    15 1   
    32    14    28 1   
    33    14    41 1   
    34    14    42 1   
    35    15    29 1   
    36    15    43 1   
    37    15    44 1   
    38    16    29 1   
    39    16    45 1   
    40    16    46 1   
    41    16    47 1   
    42    17    18 ar  
    43    17    48 1   
    44    18    19 ar  
    45    18    49 1   
    46    19    50 1   
    47    21    22 1   
    48    23    26 ar  
    49    25    26 ar  
    50    25    53 1   
    51    26    54 1   
    52    27    28 1   
    53    27    53 2   
    54    31    54 1   
    55    32    54 1   
    56    40    53 1   
    57    51    52 1   
@<TRIPOS>SUBSTRUCTURE
     1 POX         1 TEMP              0 ****  ****    0 ROOT
