@<TRIPOS>MOLECULE
POY
   44    45     1     0     0
SMALL
abcg2


@<TRIPOS>ATOM
      1 N1           0.0600     0.5370    -0.5750 n          1 POY      -0.373400
      2 C2           0.9200    -0.5080    -0.2200 c          1 POY       0.633600
      3 C3           2.1820    -0.0270     0.2290 cc         1 POY      -0.354600
      4 C4           2.4720     1.3090     0.3410 cd         1 POY       0.437900
      5 N5           1.5640     2.2690    -0.0020 n          1 POY      -0.359300
      6 C6           0.3280     1.9000    -0.4630 c          1 POY       0.618000
      7 N7           3.3100    -0.6760     0.6790 na         1 POY      -0.112500
      8 C8           4.1780     0.2860     1.0090 cc         1 POY       0.447400
      9 N9           3.7080     1.5080     0.8240 nd         1 POY      -0.706000
     10 C10         -1.2790     0.1730    -1.0410 c3         1 POY       0.100000
     11 C11         -2.3050     0.1430     0.0820 c3         1 POY      -0.096400
     12 C12         -3.6710    -0.3000    -0.4250 c3         1 POY      -0.062400
     13 C13         -4.7130    -0.2810     0.6800 c3         1 POY      -0.182400
     14 C14         -6.0950    -0.7170     0.2690 c          1 POY       0.571100
     15 C15         -7.1040    -0.8170     1.3810 c3         1 POY      -0.202100
     16 O16         -6.3760    -0.9810    -0.8790 o          1 POY      -0.521100
     17 O17          0.5820    -1.6760    -0.3030 o          1 POY      -0.540000
     18 O18         -0.5030     2.7360    -0.7630 o          1 POY      -0.554000
     19 C19          1.8610     3.6840     0.1410 c3         1 POY       0.101300
     20 C20          3.5710    -2.1060     0.6990 c3         1 POY       0.074600
     21 C21          3.9090    -2.6560    -0.6780 c3         1 POY      -0.095400
     22 C22          4.1980    -4.1490    -0.6140 c3         1 POY      -0.089100
     23 H8           5.1620     0.0560     1.3910 h5         1 POY       0.062100
     24 H10         -1.5770     0.8780    -1.8150 h1         1 POY       0.072200
     25 H10A        -1.2080    -0.8040    -1.5120 h1         1 POY       0.072200
     26 H11         -1.9660    -0.5370     0.8690 hc         1 POY       0.049700
     27 H11A        -2.3820     1.1350     0.5350 hc         1 POY       0.049700
     28 H12         -3.9890     0.3530    -1.2430 hc         1 POY       0.054200
     29 H12A        -3.5950    -1.3060    -0.8460 hc         1 POY       0.054200
     30 H13         -4.4000    -0.9060     1.5240 hc         1 POY       0.060200
     31 H13A        -4.8040     0.7260     1.1050 hc         1 POY       0.060200
     32 H15         -7.0240     0.0280     2.0640 hc         1 POY       0.059700
     33 H15A        -8.1190    -0.8810     0.9950 hc         1 POY       0.059700
     34 H15B        -6.9000    -1.7160     1.9670 hc         1 POY       0.059700
     35 H19          1.7490     4.2000    -0.8090 h1         1 POY       0.058700
     36 H19A         1.2050     4.1450     0.8770 h1         1 POY       0.058700
     37 H19B         2.8880     3.7870     0.4760 h1         1 POY       0.058700
     38 H20          4.4030    -2.2630     1.3860 h1         1 POY       0.070200
     39 H20A         2.7030    -2.6110     1.1180 h1         1 POY       0.070200
     40 H21          3.0760    -2.4720    -1.3600 hc         1 POY       0.058200
     41 H21A         4.7740    -2.1200    -1.0750 hc         1 POY       0.058200
     42 H22          5.0300    -4.3660     0.0580 hc         1 POY       0.039367
     43 H22A         3.3300    -4.7060    -0.2580 hc         1 POY       0.039367
     44 H22B         4.4580    -4.5380    -1.5980 hc         1 POY       0.039367
@<TRIPOS>BOND
     1     1     2 1   
     2     1     6 1   
     3     1    10 1   
     4     2     3 1   
     5     2    17 2   
     6     3     4 2   
     7     3     7 1   
     8     4     5 1   
     9     4     9 1   
    10     5     6 1   
    11     5    19 1   
    12     6    18 2   
    13     7     8 1   
    14     7    20 1   
    15     8     9 2   
    16     8    23 1   
    17    10    11 1   
    18    10    24 1   
    19    10    25 1   
    20    11    12 1   
    21    11    26 1   
    22    11    27 1   
    23    12    13 1   
    24    12    28 1   
    25    12    29 1   
    26    13    14 1   
    27    13    30 1   
    28    13    31 1   
    29    14    15 1   
    30    14    16 2   
    31    15    32 1   
    32    15    33 1   
    33    15    34 1   
    34    19    35 1   
    35    19    36 1   
    36    19    37 1   
    37    20    21 1   
    38    20    38 1   
    39    20    39 1   
    40    21    22 1   
    41    21    40 1   
    42    21    41 1   
    43    22    42 1   
    44    22    43 1   
    45    22    44 1   
@<TRIPOS>SUBSTRUCTURE
     1 POY         1 TEMP              0 ****  ****    0 ROOT
