@<TRIPOS>MOLECULE
POY
   44    45     1     0     0
SMALL
No Charge or Current Charge


@<TRIPOS>ATOM
      1 N1           0.0480     0.6270    -0.5320 n          1 POY      -0.373400
      2 C2           0.9380    -0.4070    -0.2120 c          1 POY       0.633600
      3 C3           2.2530     0.0470     0.2400 cc         1 POY      -0.354600
      4 C4           2.5620     1.3660     0.3320 cd         1 POY       0.437900
      5 N5           1.6560     2.3430     0.0040 n          1 POY      -0.359300
      6 C6           0.3750     1.9920    -0.4480 c          1 POY       0.618000
      7 N7           3.3890    -0.6360     0.6410 na         1 POY      -0.112500
      8 C8           4.3360     0.3160     0.9580 cc         1 POY       0.447400
      9 N9           3.8520     1.5370     0.7760 nd         1 POY      -0.706000
     10 C10         -1.3000     0.2540    -1.0430 c3         1 POY       0.100000
     11 C11         -2.3450     0.1180     0.0840 c3         1 POY      -0.096400
     12 C12         -3.7460    -0.2710    -0.4370 c3         1 POY      -0.062400
     13 C13         -4.7910    -0.4060     0.6980 c3         1 POY      -0.182400
     14 C14         -6.2130    -0.7930     0.2590 c          1 POY       0.571100
     15 C15         -7.2480    -0.9290     1.3750 c3         1 POY      -0.202100
     16 O16         -6.5130    -0.9840    -0.9130 o          1 POY      -0.521100
     17 O17          0.6390    -1.5890    -0.2990 o          1 POY      -0.540000
     18 O18         -0.4340     2.8590    -0.7540 o          1 POY      -0.554000
     19 C19          2.0060     3.7810     0.1040 c3         1 POY       0.101300
     20 C20          3.5780    -2.0940     0.7140 c3         1 POY       0.074600
     21 C21          3.9560    -2.7170    -0.6470 c3         1 POY      -0.095400
     22 C22          4.1470    -4.2450    -0.5760 c3         1 POY      -0.089100
     23 H8           5.3300     0.0580     1.3020 h5         1 POY       0.062100
     24 H10         -1.6460     1.0020    -1.7690 h1         1 POY       0.072200
     25 H10A        -1.2400    -0.6940    -1.5940 h1         1 POY       0.072200
     26 H11         -2.0030    -0.6370     0.8010 hc         1 POY       0.049700
     27 H11A        -2.4130     1.0690     0.6260 hc         1 POY       0.049700
     28 H12         -4.0870     0.4850    -1.1550 hc         1 POY       0.054200
     29 H12A        -3.6770    -1.2230    -0.9800 hc         1 POY       0.054200
     30 H13         -4.4730    -1.1240     1.4640 hc         1 POY       0.060200
     31 H13A        -4.8660     0.5100     1.2960 hc         1 POY       0.060200
     32 H15         -7.2750     0.0040     1.9500 hc         1 POY       0.059700
     33 H15A        -8.2400    -1.2050     1.0020 hc         1 POY       0.059700
     34 H15B        -6.8790    -1.6460     2.1160 hc         1 POY       0.059700
     35 H19          2.0280     4.2250    -0.8990 h1         1 POY       0.058700
     36 H19A         1.2560     4.3050     0.7100 h1         1 POY       0.058700
     37 H19B         2.9870     3.9240     0.5730 h1         1 POY       0.058700
     38 H20          4.3690    -2.3110     1.4450 h1         1 POY       0.070200
     39 H20A         2.6530    -2.5530     1.0860 h1         1 POY       0.070200
     40 H21          3.1740    -2.4870    -1.3810 hc         1 POY       0.058200
     41 H21A         4.8830    -2.2560    -1.0110 hc         1 POY       0.058200
     42 H22          4.9470    -4.5050     0.1260 hc         1 POY       0.039367
     43 H22A         3.2230    -4.7360    -0.2470 hc         1 POY       0.039367
     44 H22B         4.4140    -4.6430    -1.5630 hc         1 POY       0.039367
@<TRIPOS>BOND
     1     1     2 1   
     2     1     6 1   
     3     1    10 1   
     4     2     3 1   
     5     2    17 2   
     6     3     4 2   
     7     3     7 1   
     8     4     5 1   
     9     4     9 1   
    10     5     6 1   
    11     5    19 1   
    12     6    18 2   
    13     7     8 1   
    14     7    20 1   
    15     8     9 2   
    16     8    23 1   
    17    10    11 1   
    18    10    24 1   
    19    10    25 1   
    20    11    12 1   
    21    11    26 1   
    22    11    27 1   
    23    12    13 1   
    24    12    28 1   
    25    12    29 1   
    26    13    14 1   
    27    13    30 1   
    28    13    31 1   
    29    14    15 1   
    30    14    16 2   
    31    15    32 1   
    32    15    33 1   
    33    15    34 1   
    34    19    35 1   
    35    19    36 1   
    36    19    37 1   
    37    20    21 1   
    38    20    38 1   
    39    20    39 1   
    40    21    22 1   
    41    21    40 1   
    42    21    41 1   
    43    22    42 1   
    44    22    43 1   
    45    22    44 1   
@<TRIPOS>SUBSTRUCTURE
     1 POY         1 TEMP              0 ****  ****    0 ROOT
