@<TRIPOS>MOLECULE
POZ
   93    99     1     0     0
SMALL
No Charge or Current Charge


@<TRIPOS>ATOM
      1 CAA         12.3180    -1.5160    -2.9730 c3         1 POZ      -0.090100
      2 CAB         12.9380    -2.0470     2.1260 c3         1 POZ      -0.124100
      3 OAC          9.6720    -2.2410    -0.4490 o          1 POZ      -0.552000
      4 OAD         14.0110    -0.1970     1.0090 oh         1 POZ      -0.660000
      5 CAG        -11.4100    -1.6290    -0.8140 ca         1 POZ      -0.198000
      6 CAH         -2.8140     1.5430    -0.9240 ca         1 POZ      -0.144500
      7 CAI         -2.7510     1.8050     1.4900 ca         1 POZ      -0.144500
      8 CAJ         -1.4240     1.3280    -0.9370 ca         1 POZ      -0.112500
      9 CAK         -1.3600     1.5890     1.4730 ca         1 POZ      -0.112500
     10 CAL          5.9190     1.6320    -0.2480 ca         1 POZ      -0.157000
     11 CAM          5.6620    -0.6850     0.3870 ca         1 POZ      -0.157000
     12 CAN          7.3130     1.4610    -0.3210 ca         1 POZ      -0.072500
     13 CAO          7.0550    -0.8620     0.3120 ca         1 POZ      -0.072500
     14 CAP        -10.5240    -1.0860     0.1280 ca         1 POZ       0.212000
     15 CAQ         -6.2910    -3.5230    -0.0990 cc         1 POZ       0.516900
     16 CAR        -10.1810    -0.5400    -2.5960 ca         1 POZ      -0.171000
     17 CAS         -5.9880    -1.4450    -0.2660 cd         1 POZ       0.429400
     18 CAT         10.2420     1.0890     0.0670 cc         1 POZ       0.374800
     19 CAU         13.2440    -1.3300    -1.7520 c3         1 POZ      -0.083400
     20 CAV         -8.1360     2.2180     2.2170 c5         1 POZ      -0.112400
     21 CAW          1.4560     0.5940     1.4150 c6         1 POZ       0.182800
     22 CAX          1.5900     1.9850    -0.6450 c6         1 POZ       0.182800
     23 CAY          2.8090    -0.0950     1.0370 c6         1 POZ       0.194800
     24 CAZ          2.9410     1.2930    -1.0240 c6         1 POZ       0.194800
     25 CBA         -9.2720     1.3320     1.6380 c5         1 POZ      -0.098400
     26 CBB         -5.6370     2.1840     1.4250 c3         1 POZ       0.155600
     27 CBC         -7.6740    -0.7620     1.5510 c3         1 POZ       0.073600
     28 NBD         -5.5730    -2.5880    -0.7850 nc         1 POZ      -0.704000
     29 NBE         -7.1300    -3.0770     0.8180 nd         1 POZ      -0.544800
     30 NBF         11.4990     0.7130     0.0180 n2         1 POZ      -0.509300
     31 OBH         -7.5270     1.2250     0.1160 os         1 POZ      -0.449000
     32 CBI        -11.2370    -1.3540    -2.1730 ca         1 POZ       0.207000
     33 CBJ         -9.2910     0.0060    -1.6550 ca         1 POZ      -0.025000
     34 CBK         -3.4840     1.7820     0.2850 ca         1 POZ       0.112100
     35 CBL         -0.6800     1.3500     0.2600 ca         1 POZ       0.244000
     36 CBM          5.0770     0.5610     0.0970 ca         1 POZ       0.306000
     37 CBN          7.9000     0.1980    -0.0830 ca         1 POZ       0.014600
     38 CBO         -9.4480    -0.2540    -0.2700 ca         1 POZ      -0.146300
     39 CBP         10.0720    -1.1020    -0.2450 c          1 POZ       0.567000
     40 CBQ         13.5540    -1.5400     0.8050 c3         1 POZ       0.167300
     41 CBR         -7.1350     2.2920     1.0230 c5         1 POZ       0.163300
     42 CBS         12.5480    -1.5820    -0.3870 c3         1 POZ       0.114700
     43 NBT          0.7190     1.1300     0.2250 nh         1 POZ      -0.772400
     44 NBU          3.6780     0.7610     0.1660 nh         1 POZ      -0.787400
     45 NBV         -6.9370    -1.7250     0.7100 na         1 POZ      -0.059700
     46 NBW          9.3380     0.0480    -0.0640 n          1 POZ      -0.238500
     47 NBX         11.3960    -0.6620    -0.1800 n          1 POZ      -0.165800
     48 CBY         -8.4600     0.3320     0.7630 c5         1 POZ       0.221300
     49 HAA         12.8820    -1.3810    -3.9040 hc         1 POZ       0.036367
     50 HAAA        11.8810    -2.5220    -2.9800 hc         1 POZ       0.036367
     51 HAAB        11.5020    -0.7830    -2.9640 hc         1 POZ       0.036367
     52 HAB         12.0950    -1.4190     2.4390 hc         1 POZ       0.044033
     53 HABA        12.5760    -3.0750     2.0110 hc         1 POZ       0.044033
     54 HABB        13.6870    -2.0390     2.9270 hc         1 POZ       0.044033
     55 HOAD        13.2390     0.3650     0.7440 ho         1 POZ       0.462000
     56 HAH         -3.3740     1.5200    -1.8560 ha         1 POZ       0.121500
     57 HAI         -3.2370     1.9910     2.4440 ha         1 POZ       0.121500
     58 HAJ         -0.9240     1.1310    -1.8810 ha         1 POZ       0.116500
     59 HAK         -0.8130     1.6220     2.4110 ha         1 POZ       0.116500
     60 HAL          5.4920     2.6100    -0.4470 ha         1 POZ       0.119500
     61 HAM          5.0420    -1.5300     0.6710 ha         1 POZ       0.119500
     62 HAN          7.9230     2.3180    -0.5920 ha         1 POZ       0.126000
     63 HAO          7.4650    -1.8320     0.5770 ha         1 POZ       0.126000
     64 HAQ         -6.1460    -4.5730    -0.3280 h5         1 POZ       0.062100
     65 HAR        -10.0500    -0.3320    -3.6550 ha         1 POZ       0.140000
     66 HAS         -5.6690    -0.4420    -0.5240 h5         1 POZ       0.069100
     67 HAT          9.9190     2.1090     0.2280 h5         1 POZ       0.074800
     68 HAU         14.0920    -2.0200    -1.8520 hc         1 POZ       0.056700
     69 HAUA        13.6600    -0.3160    -1.7730 hc         1 POZ       0.056700
     70 HAV         -8.4940     3.2090     2.5180 hc         1 POZ       0.059700
     71 HAVA        -7.6830     1.7610     3.1040 hc         1 POZ       0.059700
     72 HAW          0.8350    -0.1420     1.9470 h1         1 POZ       0.045950
     73 HAWA         1.6660     1.4130     2.1170 h1         1 POZ       0.045950
     74 HAX          1.8160     2.9250    -0.1210 h1         1 POZ       0.045950
     75 HAXA         1.0700     2.2550    -1.5750 h1         1 POZ       0.045950
     76 HAY          3.3350    -0.3480     1.9700 h1         1 POZ       0.048950
     77 HAYA         2.5870    -1.0410     0.5210 h1         1 POZ       0.048950
     78 HAZ          2.7260     0.4680    -1.7200 h1         1 POZ       0.048950
     79 HAZA         3.5560     2.0210    -1.5730 h1         1 POZ       0.048950
     80 HBA         -9.8590     0.8460     2.4250 hc         1 POZ       0.072200
     81 HBAA        -9.9650     1.9250     1.0290 hc         1 POZ       0.072200
     82 HBB         -5.5050     1.3440     2.1180 h1         1 POZ       0.037200
     83 HBBA        -5.3370     3.1060     1.9400 h1         1 POZ       0.037200
     84 HBC         -8.3760    -1.3200     2.1820 h1         1 POZ       0.075700
     85 HBCA        -6.9550    -0.2920     2.2300 h1         1 POZ       0.075700
     86 HBJ         -8.4780     0.6320    -2.0170 ha         1 POZ       0.143000
     87 HBQ         14.4040    -2.1940     0.5630 h1         1 POZ       0.071700
     88 HBR         -7.2650     3.2390     0.4820 h1         1 POZ       0.072700
     89 HBS         12.1590    -2.6080    -0.4210 h1         1 POZ       0.080700
     90 OBG         -4.8470     1.9810     0.2370 os         1 POZ      -0.333100
     91 HAG        -12.2290    -2.2620    -0.4880 ha         1 POZ       0.151000
     92 FAE        -12.0890    -1.8770    -3.0800 f          1 POZ      -0.171000
     93 FAF        -10.7280    -1.3790     1.4310 f          1 POZ      -0.182000
@<TRIPOS>BOND
     1     1    19 1   
     2     1    49 1   
     3     1    50 1   
     4     1    51 1   
     5     2    40 1   
     6     2    52 1   
     7     2    53 1   
     8     2    54 1   
     9     3    39 2   
    10     4    40 1   
    11     4    55 1   
    12     5    14 ar  
    13     5    32 ar  
    14     5    91 1   
    15     6     8 ar  
    16     6    34 ar  
    17     6    56 1   
    18     7     9 ar  
    19     7    34 ar  
    20     7    57 1   
    21     8    35 ar  
    22     8    58 1   
    23     9    35 ar  
    24     9    59 1   
    25    10    12 ar  
    26    10    36 ar  
    27    10    60 1   
    28    11    13 ar  
    29    11    36 ar  
    30    11    61 1   
    31    12    37 ar  
    32    12    62 1   
    33    13    37 ar  
    34    13    63 1   
    35    14    38 ar  
    36    14    93 1   
    37    15    28 1   
    38    15    29 2   
    39    15    64 1   
    40    16    32 ar  
    41    16    33 ar  
    42    16    65 1   
    43    17    28 2   
    44    17    45 1   
    45    17    66 1   
    46    18    30 2   
    47    18    46 1   
    48    18    67 1   
    49    19    42 1   
    50    19    68 1   
    51    19    69 1   
    52    20    25 1   
    53    20    41 1   
    54    20    70 1   
    55    20    71 1   
    56    21    23 1   
    57    21    43 1   
    58    21    72 1   
    59    21    73 1   
    60    22    24 1   
    61    22    43 1   
    62    22    74 1   
    63    22    75 1   
    64    23    44 1   
    65    23    76 1   
    66    23    77 1   
    67    24    44 1   
    68    24    78 1   
    69    24    79 1   
    70    25    48 1   
    71    25    80 1   
    72    25    81 1   
    73    26    41 1   
    74    26    82 1   
    75    26    83 1   
    76    26    90 1   
    77    27    45 1   
    78    27    48 1   
    79    27    84 1   
    80    27    85 1   
    81    29    45 1   
    82    30    47 1   
    83    31    41 1   
    84    31    48 1   
    85    32    92 1   
    86    33    38 ar  
    87    33    86 1   
    88    34    90 1   
    89    35    43 1   
    90    36    44 1   
    91    37    46 1   
    92    38    48 1   
    93    39    46 1   
    94    39    47 1   
    95    40    42 1   
    96    40    87 1   
    97    41    88 1   
    98    42    47 1   
    99    42    89 1   
@<TRIPOS>SUBSTRUCTURE
     1 POZ         1 TEMP              0 ****  ****    0 ROOT
