@<TRIPOS>MOLECULE
POZ
   93    99     1     0     0
SMALL
abcg2


@<TRIPOS>ATOM
      1 CAA         12.2460    -1.4030    -2.9940 c3         1 POZ      -0.090100
      2 CAB         12.6260    -1.7040     2.0630 c3         1 POZ      -0.124100
      3 OAC          9.4790    -2.1030    -0.4600 o          1 POZ      -0.552000
      4 OAD         14.0800    -0.2020     0.8210 oh         1 POZ      -0.660000
      5 CAG        -11.5930    -0.8570    -1.0030 ca         1 POZ      -0.198000
      6 CAH         -2.6120     1.2690    -0.9550 ca         1 POZ      -0.144500
      7 CAI         -2.5560     1.4540     1.4320 ca         1 POZ      -0.144500
      8 CAJ         -1.2480     1.0690    -0.9750 ca         1 POZ      -0.112500
      9 CAK         -1.1740     1.2720     1.4020 ca         1 POZ      -0.112500
     10 CAL          5.9190     1.5280    -0.6330 ca         1 POZ      -0.157000
     11 CAM          5.7620    -0.3120     0.8920 ca         1 POZ      -0.157000
     12 CAN          7.2870     1.3490    -0.7050 ca         1 POZ      -0.072500
     13 CAO          7.1370    -0.4700     0.8430 ca         1 POZ      -0.072500
     14 CAP        -10.7040    -0.4980    -0.0110 ca         1 POZ       0.212000
     15 CAQ         -7.3620    -3.5810    -0.5150 cc         1 POZ       0.516900
     16 CAR         -9.8700    -0.3750    -2.6240 ca         1 POZ      -0.171000
     17 CAS         -6.2440    -2.0270     0.3020 cd         1 POZ       0.429400
     18 CAT         10.2540     1.1660     0.1020 cc         1 POZ       0.374800
     19 CAU         13.1400    -1.2100    -1.7780 c3         1 POZ      -0.083400
     20 CAV         -7.6990     2.0790     2.2550 c5         1 POZ      -0.112400
     21 CAW          1.5930     0.6260     1.3850 c6         1 POZ       0.182800
     22 CAX          1.6490     1.7410    -0.7140 c6         1 POZ       0.182800
     23 CAY          2.9760     0.0550     1.1320 c6         1 POZ       0.194800
     24 CAZ          3.0270     1.1800    -0.9960 c6         1 POZ       0.194800
     25 CBA         -8.9770     1.3710     1.8240 c5         1 POZ      -0.098400
     26 CBB         -5.3560     1.7980     1.3680 c3         1 POZ       0.155600
     27 CBC         -8.0760    -0.9880     1.6590 c3         1 POZ       0.073600
     28 NBD         -6.1270    -3.0350    -0.5310 nc         1 POZ      -0.704000
     29 NBE         -8.2140    -2.9730     0.2730 nd         1 POZ      -0.544800
     30 NBF         11.4420     0.6990    -0.0480 n2         1 POZ      -0.509300
     31 OBH         -7.2770     0.8130     0.3090 os         1 POZ      -0.449000
     32 CBI        -11.1480    -0.7880    -2.3080 ca         1 POZ       0.207000
     33 CBJ         -9.0140    -0.0220    -1.5900 ca         1 POZ      -0.025000
     34 CBK         -3.2860     1.4620     0.2530 ca         1 POZ       0.112100
     35 CBL         -0.4910     1.0710     0.2060 ca         1 POZ       0.244000
     36 CBM          5.1140     0.6970     0.1650 ca         1 POZ       0.306000
     37 CBN          7.9080     0.3550     0.0400 ca         1 POZ       0.014600
     38 CBO         -9.4080    -0.0700    -0.2560 ca         1 POZ      -0.146300
     39 CBP          9.9690    -1.0030    -0.2810 c          1 POZ       0.567000
     40 CBQ         13.3610    -1.4150     0.7610 c3         1 POZ       0.167300
     41 CBR         -6.8160     1.9580     1.0180 c5         1 POZ       0.163300
     42 CBS         12.4270    -1.4930    -0.4590 c3         1 POZ       0.114700
     43 NBT          0.8920     0.8400     0.1390 nh         1 POZ      -0.772400
     44 NBU          3.7420     0.9030     0.2420 nh         1 POZ      -0.787400
     45 NBV         -7.4850    -1.9820     0.7970 na         1 POZ      -0.059700
     46 NBW          9.3090     0.1920    -0.0240 n          1 POZ      -0.238500
     47 NBX         11.2760    -0.6310    -0.2820 n          1 POZ      -0.165800
     48 CBY         -8.4580     0.2820     0.8720 c5         1 POZ       0.221300
     49 HAA         12.8170    -1.2800    -3.9150 hc         1 POZ       0.036367
     50 HAAA        11.8050    -2.4010    -3.0090 hc         1 POZ       0.036367
     51 HAAB        11.4300    -0.6790    -3.0200 hc         1 POZ       0.036367
     52 HAB         11.8790    -0.9400     2.2900 hc         1 POZ       0.044033
     53 HABA        12.1150    -2.6670     2.0190 hc         1 POZ       0.044033
     54 HABB        13.3290    -1.7390     2.8960 hc         1 POZ       0.044033
     55 HOAD        13.4430     0.5230     0.8010 ho         1 POZ       0.462000
     56 HAH         -3.1720     1.2600    -1.8830 ha         1 POZ       0.121500
     57 HAI         -3.0300     1.6040     2.3930 ha         1 POZ       0.121500
     58 HAJ         -0.7630     0.8910    -1.9270 ha         1 POZ       0.116500
     59 HAK         -0.6440     1.2980     2.3440 ha         1 POZ       0.116500
     60 HAL          5.4830     2.3360    -1.2030 ha         1 POZ       0.119500
     61 HAM          5.2010    -1.0000     1.5080 ha         1 POZ       0.119500
     62 HAN          7.8720     1.9980    -1.3450 ha         1 POZ       0.126000
     63 HAO          7.5980    -1.2500     1.4330 ha         1 POZ       0.126000
     64 HAQ         -7.6380    -4.4500    -1.0930 h5         1 POZ       0.062100
     65 HAR         -9.5440    -0.3270    -3.6540 ha         1 POZ       0.140000
     66 HAS         -5.4700    -1.3280     0.5760 h5         1 POZ       0.069100
     67 HAT         10.0190     2.1960     0.3170 h5         1 POZ       0.074800
     68 HAU         13.9930    -1.8900    -1.8390 hc         1 POZ       0.056700
     69 HAUA        13.5510    -0.1990    -1.7710 hc         1 POZ       0.056700
     70 HAV         -7.8710     3.1170     2.5350 hc         1 POZ       0.059700
     71 HAVA        -7.2460     1.5780     3.1140 hc         1 POZ       0.059700
     72 HAW          1.0470    -0.0950     1.9960 h1         1 POZ       0.045950
     73 HAWA         1.6830     1.5540     1.9730 h1         1 POZ       0.045950
     74 HAX          1.7470     2.7340    -0.2490 h1         1 POZ       0.045950
     75 HAXA         1.1400     1.8790    -1.6660 h1         1 POZ       0.045950
     76 HAY          3.4790    -0.0120     2.0960 h1         1 POZ       0.048950
     77 HAYA         2.8790    -0.9670     0.7360 h1         1 POZ       0.048950
     78 HAZ          2.9360     0.2680    -1.6020 h1         1 POZ       0.048950
     79 HAZA         3.5640     1.9140    -1.5930 h1         1 POZ       0.048950
     80 HBA         -9.5380     0.9710     2.6660 hc         1 POZ       0.072200
     81 HBAA        -9.6300     2.0560     1.2810 hc         1 POZ       0.072200
     82 HBB         -5.2200     0.9320     2.0300 h1         1 POZ       0.037200
     83 HBBA        -5.0260     2.6880     1.9190 h1         1 POZ       0.037200
     84 HBC         -8.9400    -1.4380     2.1400 h1         1 POZ       0.075700
     85 HBCA        -7.3590    -0.7380     2.4420 h1         1 POZ       0.075700
     86 HBJ         -8.0140     0.3000    -1.8370 ha         1 POZ       0.143000
     87 HBQ         14.1110    -2.1970     0.6110 h1         1 POZ       0.071700
     88 HBR         -6.9360     2.8360     0.3720 h1         1 POZ       0.072700
     89 HBS         12.0240    -2.5080    -0.4900 h1         1 POZ       0.080700
     90 OBG         -4.6250     1.6400     0.1730 os         1 POZ      -0.333100
     91 HAG        -12.5970    -1.1790    -0.7610 ha         1 POZ       0.151000
     92 FAE        -11.9920    -1.1330    -3.2900 f          1 POZ      -0.171000
     93 FAF        -11.1390    -0.5710     1.2580 f          1 POZ      -0.182000
@<TRIPOS>BOND
     1     1    19 1   
     2     1    49 1   
     3     1    50 1   
     4     1    51 1   
     5     2    40 1   
     6     2    52 1   
     7     2    53 1   
     8     2    54 1   
     9     3    39 2   
    10     4    40 1   
    11     4    55 1   
    12     5    14 ar  
    13     5    32 ar  
    14     5    91 1   
    15     6     8 ar  
    16     6    34 ar  
    17     6    56 1   
    18     7     9 ar  
    19     7    34 ar  
    20     7    57 1   
    21     8    35 ar  
    22     8    58 1   
    23     9    35 ar  
    24     9    59 1   
    25    10    12 ar  
    26    10    36 ar  
    27    10    60 1   
    28    11    13 ar  
    29    11    36 ar  
    30    11    61 1   
    31    12    37 ar  
    32    12    62 1   
    33    13    37 ar  
    34    13    63 1   
    35    14    38 ar  
    36    14    93 1   
    37    15    28 1   
    38    15    29 2   
    39    15    64 1   
    40    16    32 ar  
    41    16    33 ar  
    42    16    65 1   
    43    17    28 2   
    44    17    45 1   
    45    17    66 1   
    46    18    30 2   
    47    18    46 1   
    48    18    67 1   
    49    19    42 1   
    50    19    68 1   
    51    19    69 1   
    52    20    25 1   
    53    20    41 1   
    54    20    70 1   
    55    20    71 1   
    56    21    23 1   
    57    21    43 1   
    58    21    72 1   
    59    21    73 1   
    60    22    24 1   
    61    22    43 1   
    62    22    74 1   
    63    22    75 1   
    64    23    44 1   
    65    23    76 1   
    66    23    77 1   
    67    24    44 1   
    68    24    78 1   
    69    24    79 1   
    70    25    48 1   
    71    25    80 1   
    72    25    81 1   
    73    26    41 1   
    74    26    82 1   
    75    26    83 1   
    76    26    90 1   
    77    27    45 1   
    78    27    48 1   
    79    27    84 1   
    80    27    85 1   
    81    29    45 1   
    82    30    47 1   
    83    31    41 1   
    84    31    48 1   
    85    32    92 1   
    86    33    38 ar  
    87    33    86 1   
    88    34    90 1   
    89    35    43 1   
    90    36    44 1   
    91    37    46 1   
    92    38    48 1   
    93    39    46 1   
    94    39    47 1   
    95    40    42 1   
    96    40    87 1   
    97    41    88 1   
    98    42    47 1   
    99    42    89 1   
@<TRIPOS>SUBSTRUCTURE
     1 POZ         1 TEMP              0 ****  ****    0 ROOT
