@<TRIPOS>MOLECULE
PP0
   60    62     1     0     0
SMALL
No Charge or Current Charge


@<TRIPOS>ATOM
      1 CAA          7.2640    -2.4760    -0.4500 c3         1 PP0      -0.098100
      2 CAB          3.3700    -1.8360    -2.1830 c3         1 PP0      -0.108100
      3 CAD          1.2880     1.4850    -2.2350 c3         1 PP0      -0.037800
      4 OAE          4.8170    -0.5410     2.3740 o          1 PP0      -0.493000
      5 OAF          0.2530     2.8850     1.7310 o          1 PP0      -0.599100
      6 CAG         -6.4780    -3.0110    -1.3630 ca         1 PP0      -0.109000
      7 CAH         -6.5700    -1.7170    -1.9030 ca         1 PP0      -0.114500
      8 CAI         -5.8710    -3.2060    -0.1110 ca         1 PP0      -0.114500
      9 CAJ         -6.0550    -0.6190    -1.1910 ca         1 PP0      -0.098000
     10 CAK         -5.3560    -2.1080     0.6010 ca         1 PP0      -0.098000
     11 CAL          6.5560    -1.8590     0.7660 c3         1 PP0       0.169600
     12 CAM          3.7260    -0.3550    -1.9460 c3         1 PP0       0.071600
     13 CAN         -3.2750     2.2600     0.8650 c6         1 PP0       0.145300
     14 CAO         -2.5470     0.0580     0.0660 c6         1 PP0       0.145300
     15 CAP         -2.0780     2.9280     0.1350 c6         1 PP0       0.099000
     16 CAQ         -1.3320     0.7060    -0.6550 c6         1 PP0       0.099000
     17 OAS          5.3860    -1.1820     0.2780 os         1 PP0      -0.462100
     18 CAT          4.5670    -0.5530     1.1770 c          1 PP0       0.639700
     19 CAU          0.2420     2.1270     0.7690 c          1 PP0       0.648700
     20 CAV         -5.4450    -0.8080     0.0650 ca         1 PP0      -0.088300
     21 CAW          2.3870     0.7710     1.2940 cc         1 PP0      -0.021300
     22 CAX          1.8350     1.0020    -0.9040 cd         1 PP0      -0.094300
     23 CAY          1.4310     1.2980     0.3820 cc         1 PP0      -0.240600
     24 CAZ          3.3700     0.1220     0.5720 cd         1 PP0      -0.246600
     25 NBA         -3.7000     1.0000     0.1900 n3         1 PP0      -0.721600
     26 NBB         -0.9280     1.9930    -0.0150 n          1 PP0      -0.409800
     27 NBC          3.0070     0.2360    -0.7900 na         1 PP0       0.063000
     28 HAA          6.6030    -3.1870    -0.9610 hc         1 PP0       0.045700
     29 HAAA         7.5570    -1.6960    -1.1630 hc         1 PP0       0.045700
     30 HAAB         8.1670    -3.0100    -0.1330 hc         1 PP0       0.045700
     31 HAB          2.2990    -1.9450    -2.3910 hc         1 PP0       0.047700
     32 HABA         3.9300    -2.2290    -3.0400 hc         1 PP0       0.047700
     33 HABB         3.6140    -2.4450    -1.3050 hc         1 PP0       0.047700
     34 HAC          2.8420     1.7270     3.1840 hc         1 PP0       0.050700
     35 HACA         1.2110     1.0290     3.1120 hc         1 PP0       0.050700
     36 HACB         2.5780    -0.0250     3.3080 hc         1 PP0       0.050700
     37 HAD          2.0840     1.8880    -2.8710 hc         1 PP0       0.053700
     38 HADA         0.7990     0.6710    -2.7830 hc         1 PP0       0.053700
     39 HADB         0.5650     2.2990    -2.1170 hc         1 PP0       0.053700
     40 HAH         -7.0380    -1.5640    -2.8730 ha         1 PP0       0.111500
     41 HAI         -5.7990    -4.2070     0.3080 ha         1 PP0       0.111500
     42 HAJ         -6.1240     0.3800    -1.6160 ha         1 PP0       0.116500
     43 HAK         -4.8860    -2.2690     1.5690 ha         1 PP0       0.116500
     44 HAL          6.2830    -2.6540     1.4730 h1         1 PP0       0.050200
     45 HALA         7.2350    -1.1580     1.2710 h1         1 PP0       0.050200
     46 HAM          4.8060    -0.2400    -1.8070 h1         1 PP0       0.065700
     47 HAMA         3.4840     0.2050    -2.8550 h1         1 PP0       0.065700
     48 HAN         -2.9840     2.0550     1.9050 h1         1 PP0       0.042200
     49 HANA        -4.1090     2.9760     0.8980 h1         1 PP0       0.042200
     50 HAO         -2.8390    -0.8420    -0.4950 h1         1 PP0       0.042200
     51 HAOA        -2.2240    -0.2760     1.0630 h1         1 PP0       0.042200
     52 HAP         -2.4040     3.2470    -0.8650 h1         1 PP0       0.061200
     53 HAPA        -1.7780     3.8350     0.6770 h1         1 PP0       0.061200
     54 HAQ         -0.5110    -0.0220    -0.6470 h1         1 PP0       0.061200
     55 HAQA        -1.5970     0.8960    -1.7050 h1         1 PP0       0.061200
     56 CAC          2.2500     0.8880     2.8000 c3         1 PP0      -0.026800
     57 CAR         -4.8870     0.3880     0.8330 c3         1 PP0       0.215100
     58 HAG         -6.8760    -3.8600    -1.9140 ha         1 PP0       0.111000
     59 HAR         -5.6880     1.1350     0.9170 h1         1 PP0       0.039700
     60 HARA        -4.6390     0.0750     1.8570 h1         1 PP0       0.039700
@<TRIPOS>BOND
     1     1    11 1   
     2     1    28 1   
     3     1    29 1   
     4     1    30 1   
     5     2    12 1   
     6     2    31 1   
     7     2    32 1   
     8     2    33 1   
     9     3    22 1   
    10     3    37 1   
    11     3    38 1   
    12     3    39 1   
    13     4    18 2   
    14     5    19 2   
    15     6     7 ar  
    16     6     8 ar  
    17     6    58 1   
    18     7     9 ar  
    19     7    40 1   
    20     8    10 ar  
    21     8    41 1   
    22     9    20 ar  
    23     9    42 1   
    24    10    20 ar  
    25    10    43 1   
    26    11    17 1   
    27    11    44 1   
    28    11    45 1   
    29    12    27 1   
    30    12    46 1   
    31    12    47 1   
    32    13    15 1   
    33    13    25 1   
    34    13    48 1   
    35    13    49 1   
    36    14    16 1   
    37    14    25 1   
    38    14    50 1   
    39    14    51 1   
    40    15    26 1   
    41    15    52 1   
    42    15    53 1   
    43    16    26 1   
    44    16    54 1   
    45    16    55 1   
    46    17    18 1   
    47    18    24 1   
    48    19    23 1   
    49    19    26 1   
    50    20    57 1   
    51    21    23 1   
    52    21    24 2   
    53    21    56 1   
    54    22    23 2   
    55    22    27 1   
    56    24    27 1   
    57    25    57 1   
    58    34    56 1   
    59    35    56 1   
    60    36    56 1   
    61    57    59 1   
    62    57    60 1   
@<TRIPOS>SUBSTRUCTURE
     1 PP0         1 TEMP              0 ****  ****    0 ROOT
