@<TRIPOS>MOLECULE
PP0
   60    62     1     0     0
SMALL
bcc


@<TRIPOS>ATOM
      1 CAA          6.4580    -2.9930    -0.1910 c3         1 PP0      -0.098100
      2 CAB          3.7090    -1.0750    -2.6840 c3         1 PP0      -0.108100
      3 CAD          2.0060     2.1800    -2.5110 c3         1 PP0      -0.037800
      4 OAE          3.7260    -1.0500     2.2500 o          1 PP0      -0.542000
      5 OAF          0.4360     3.6960     0.4990 o          1 PP0      -0.599100
      6 CAG         -6.0970    -3.2840    -0.8220 ca         1 PP0      -0.127000
      7 CAH         -6.0430    -2.0480    -1.4580 ca         1 PP0      -0.132500
      8 CAI         -5.6110    -3.4090     0.4710 ca         1 PP0      -0.132500
      9 CAJ         -5.5080    -0.9490    -0.8030 ca         1 PP0      -0.116000
     10 CAK         -5.0740    -2.3040     1.1240 ca         1 PP0      -0.116000
     11 CAL          5.6400    -2.3610     0.9100 c3         1 PP0       0.146400
     12 CAM          4.1170     0.1890    -1.9470 c3         1 PP0       0.042300
     13 CAN         -3.1420     2.1340     0.9630 c6         1 PP0       0.145300
     14 CAO         -2.2690     0.0410     0.2220 c6         1 PP0       0.145300
     15 CAP         -2.1840     2.8810     0.0510 c6         1 PP0       0.099000
     16 CAQ         -1.2900     0.7580    -0.6900 c6         1 PP0       0.099000
     17 OAS          4.7500    -1.4170     0.3020 os         1 PP0      -0.438900
     18 CAT          3.8470    -0.8150     1.0650 c          1 PP0       0.688700
     19 CAU          0.2360     2.5540     0.1010 c          1 PP0       0.715700
     20 CAV         -5.0200    -1.0640     0.4980 ca         1 PP0      -0.088300
     21 CAW          1.8990     0.7700     0.9210 cc         1 PP0      -0.021300
     22 CAX          2.1600     1.4860    -1.2040 cd         1 PP0      -0.043600
     23 CAY          1.3740     1.6100    -0.0750 cc         1 PP0      -0.240600
     24 CAZ          3.0040     0.1400     0.3620 cd         1 PP0      -0.195900
     25 NBA         -3.4680     0.8330     0.4100 n3         1 PP0      -0.721600
     26 NBB         -0.9940     2.0820    -0.1790 n          1 PP0      -0.476800
     27 NBC          3.1440     0.5960    -0.9400 na         1 PP0      -0.009100
     28 HAA          5.8270    -3.5410    -0.8900 hc         1 PP0       0.045700
     29 HAAA         7.0280    -2.2490    -0.7470 hc         1 PP0       0.045700
     30 HAAB         7.1640    -3.6970     0.2480 hc         1 PP0       0.045700
     31 HAB          2.7480    -0.9470    -3.1830 hc         1 PP0       0.047700
     32 HABA         4.4520    -1.3080    -3.4470 hc         1 PP0       0.047700
     33 HABB         3.6370    -1.9270    -2.0120 hc         1 PP0       0.047700
     34 HAC          2.0050     0.9920     3.0600 hc         1 PP0       0.050700
     35 HACA         0.3900     1.1560     2.3830 hc         1 PP0       0.050700
     36 HACB         1.1290    -0.4320     2.5310 hc         1 PP0       0.050700
     37 HAD          2.8400     2.8520    -2.7190 hc         1 PP0       0.053700
     38 HADA         1.9290     1.4820    -3.3460 hc         1 PP0       0.053700
     39 HADB         1.0990     2.7820    -2.5060 hc         1 PP0       0.053700
     40 HAH         -6.4200    -1.9410    -2.4670 ha         1 PP0       0.129500
     41 HAI         -5.6400    -4.3680     0.9730 ha         1 PP0       0.129500
     42 HAJ         -5.4610     0.0090    -1.3070 ha         1 PP0       0.134500
     43 HAK         -4.6890    -2.4130     2.1310 ha         1 PP0       0.134500
     44 HAL          5.0700    -3.1180     1.4510 h1         1 PP0       0.050200
     45 HALA         6.2820    -1.8470     1.6290 h1         1 PP0       0.050200
     46 HAM          5.0920     0.0770    -1.4830 h1         1 PP0       0.065700
     47 HAMA         4.2120     1.0120    -2.6530 h1         1 PP0       0.065700
     48 HAN         -2.6930     2.0550     1.9690 h1         1 PP0       0.042200
     49 HANA        -4.0590     2.7170     1.0630 h1         1 PP0       0.042200
     50 HAO         -2.5310    -0.9130    -0.2380 h1         1 PP0       0.042200
     51 HAOA        -1.7740    -0.1850     1.1840 h1         1 PP0       0.042200
     52 HAP         -2.6700     3.0860    -0.9090 h1         1 PP0       0.061200
     53 HAPA        -1.9070     3.8320     0.4960 h1         1 PP0       0.061200
     54 HAQ         -0.3770     0.1760    -0.7790 h1         1 PP0       0.061200
     55 HAQA        -1.7260     0.8530    -1.6900 h1         1 PP0       0.061200
     56 CAC          1.3300     0.6120     2.2930 c3         1 PP0      -0.026800
     57 CAR         -4.4600     0.1410     1.2080 c3         1 PP0       0.215100
     58 HAG         -6.5110    -4.1430    -1.3340 ha         1 PP0       0.129000
     59 HAR         -5.2730     0.8450     1.4100 h1         1 PP0       0.039700
     60 HARA        -4.0610    -0.1630     2.1900 h1         1 PP0       0.039700
@<TRIPOS>BOND
     1     1    11 1   
     2     1    28 1   
     3     1    29 1   
     4     1    30 1   
     5     2    12 1   
     6     2    31 1   
     7     2    32 1   
     8     2    33 1   
     9     3    22 1   
    10     3    37 1   
    11     3    38 1   
    12     3    39 1   
    13     4    18 2   
    14     5    19 2   
    15     6     7 ar  
    16     6     8 ar  
    17     6    58 1   
    18     7     9 ar  
    19     7    40 1   
    20     8    10 ar  
    21     8    41 1   
    22     9    20 ar  
    23     9    42 1   
    24    10    20 ar  
    25    10    43 1   
    26    11    17 1   
    27    11    44 1   
    28    11    45 1   
    29    12    27 1   
    30    12    46 1   
    31    12    47 1   
    32    13    15 1   
    33    13    25 1   
    34    13    48 1   
    35    13    49 1   
    36    14    16 1   
    37    14    25 1   
    38    14    50 1   
    39    14    51 1   
    40    15    26 1   
    41    15    52 1   
    42    15    53 1   
    43    16    26 1   
    44    16    54 1   
    45    16    55 1   
    46    17    18 1   
    47    18    24 1   
    48    19    23 1   
    49    19    26 1   
    50    20    57 1   
    51    21    23 1   
    52    21    24 2   
    53    21    56 1   
    54    22    23 2   
    55    22    27 1   
    56    24    27 1   
    57    25    57 1   
    58    34    56 1   
    59    35    56 1   
    60    36    56 1   
    61    57    59 1   
    62    57    60 1   
@<TRIPOS>SUBSTRUCTURE
     1 PP0         1 TEMP              0 ****  ****    0 ROOT
