@<TRIPOS>MOLECULE
PP1
   40    42     1     0     0
SMALL
abcg2


@<TRIPOS>ATOM
      1 N1           0.6690    -0.0450    -1.8410 na         1 PP1      -0.017100
      2 C2          -2.7640     0.1190    -2.5600 ca         1 PP1       0.192900
      3 N3          -1.4960     0.0360    -2.9010 nb         1 PP1      -0.235000
      4 C4          -0.6800     0.0130    -1.8400 ca         1 PP1       0.156500
      5 C5          -1.0840     0.0530    -0.5020 ca         1 PP1      -0.379900
      6 C6          -2.4750     0.2000    -0.2850 ca         1 PP1       0.455900
      7 N7          -3.2920     0.2090    -1.3400 nb         1 PP1      -0.314000
      8 N8           1.1440    -0.0550    -0.5890 nc         1 PP1      -0.518100
      9 C9           0.1270    -0.0030     0.2380 cd         1 PP1       0.429500
     10 N10         -3.0230     0.3300     0.9250 nv         1 PP1      -1.070900
     11 C11          0.3510    -0.0190     1.6880 ca         1 PP1      -0.102900
     12 C12         -0.4270    -0.8140     2.5270 ca         1 PP1      -0.093000
     13 C13         -0.1970    -0.8350     3.8950 ca         1 PP1      -0.115000
     14 C14          0.8200    -0.0750     4.4660 ca         1 PP1      -0.068300
     15 C15          1.6030     0.7090     3.6200 ca         1 PP1      -0.115000
     16 C16          1.3760     0.7390     2.2540 ca         1 PP1      -0.093000
     17 C24          1.0860    -0.1200     5.9420 c3         1 PP1      -0.048800
     18 C28          1.5760    -0.1010    -3.0060 c3         1 PP1       0.134000
     19 C29          3.0190    -0.1590    -2.5190 c3         1 PP1      -0.100433
     20 C33          1.2660    -1.3570    -3.8220 c3         1 PP1      -0.100433
     21 C37          1.3730     1.1570    -3.8520 c3         1 PP1      -0.100433
     22 HC2         -3.4790     0.1270    -3.3760 h5         1 PP1       0.044100
     23 H101        -4.0120     0.5040     0.9980 hn         1 PP1       0.502500
     24 H102        -2.4640     0.4740     1.7480 hn         1 PP1       0.502500
     25 HC12        -1.2040    -1.4450     2.1120 ha         1 PP1       0.122500
     26 HC13        -0.8150    -1.4630     4.5260 ha         1 PP1       0.113500
     27 HC15         2.4010     1.3120     4.0370 ha         1 PP1       0.113500
     28 HC16         1.9910     1.3650     1.6200 ha         1 PP1       0.122500
     29 H241         1.8950    -0.8160     6.1710 hc         1 PP1       0.043700
     30 H242         1.3830     0.8560     6.3250 hc         1 PP1       0.043700
     31 H243         0.2080    -0.4480     6.4970 hc         1 PP1       0.043700
     32 H291         3.6650    -0.1910    -3.3970 hc         1 PP1       0.050256
     33 H292         3.2940     0.7170    -1.9320 hc         1 PP1       0.050256
     34 H293         3.2180    -1.0490    -1.9230 hc         1 PP1       0.050256
     35 H331         1.3690    -2.2550    -3.2110 hc         1 PP1       0.050256
     36 H332         0.2590    -1.3330    -4.2350 hc         1 PP1       0.050256
     37 H333         1.9690    -1.4310    -4.6520 hc         1 PP1       0.050256
     38 H371         1.5590     2.0570    -3.2640 hc         1 PP1       0.050256
     39 H372         2.0730     1.1500    -4.6880 hc         1 PP1       0.050256
     40 H373         0.3640     1.2100    -4.2580 hc         1 PP1       0.050256
@<TRIPOS>BOND
     1     1     4 1   
     2     1     8 1   
     3     1    18 1   
     4     2     3 ar  
     5     2     7 ar  
     6     2    22 1   
     7     3     4 ar  
     8     4     5 ar  
     9     5     6 ar  
    10     5     9 1   
    11     6     7 ar  
    12     6    10 1   
    13     8     9 2   
    14     9    11 1   
    15    10    23 1   
    16    10    24 1   
    17    11    12 ar  
    18    11    16 ar  
    19    12    13 ar  
    20    12    25 1   
    21    13    14 ar  
    22    13    26 1   
    23    14    15 ar  
    24    14    17 1   
    25    15    16 ar  
    26    15    27 1   
    27    16    28 1   
    28    17    29 1   
    29    17    30 1   
    30    17    31 1   
    31    18    19 1   
    32    18    20 1   
    33    18    21 1   
    34    19    32 1   
    35    19    33 1   
    36    19    34 1   
    37    20    35 1   
    38    20    36 1   
    39    20    37 1   
    40    21    38 1   
    41    21    39 1   
    42    21    40 1   
@<TRIPOS>SUBSTRUCTURE
     1 PP1         1 TEMP              0 ****  ****    0 ROOT
