@<TRIPOS>MOLECULE
PP1
   40    42     1     0     0
SMALL
No Charge or Current Charge


@<TRIPOS>ATOM
      1 N1           0.7600    -0.0700    -1.8570 na         1 PP1      -0.017100
      2 C2          -2.8510     0.1080    -2.4070 ca         1 PP1       0.192900
      3 N3          -1.5650    -0.0040    -2.8150 nb         1 PP1      -0.235000
      4 C4          -0.6360    -0.0330    -1.8370 ca         1 PP1       0.156500
      5 C5          -1.0010     0.0330    -0.5210 ca         1 PP1      -0.379900
      6 C6          -2.3410     0.1910    -0.1820 ca         1 PP1       0.455900
      7 N7          -3.2860     0.2220    -1.1300 nb         1 PP1      -0.314000
      8 N8           1.2940    -0.0180    -0.5610 nc         1 PP1      -0.518100
      9 C9           0.2250     0.0090     0.2400 cd         1 PP1       0.429500
     10 N10         -2.7830     0.3720     1.0800 nv         1 PP1      -1.070900
     11 C11          0.3520     0.0030     1.7100 ca         1 PP1      -0.102900
     12 C12         -0.3840    -0.9100     2.4940 ca         1 PP1      -0.093000
     13 C13         -0.2230    -0.9450     3.8900 ca         1 PP1      -0.115000
     14 C14          0.6920    -0.0820     4.5210 ca         1 PP1      -0.068300
     15 C15          1.4570     0.8020     3.7400 ca         1 PP1      -0.115000
     16 C16          1.2960     0.8370     2.3440 ca         1 PP1      -0.093000
     17 C24          0.8700    -0.1240     6.0310 c3         1 PP1      -0.048800
     18 C28          1.6000    -0.1210    -3.1000 c3         1 PP1       0.134000
     19 C29          3.1170    -0.1780    -2.7530 c3         1 PP1      -0.100433
     20 C33          1.2580    -1.3890    -3.9280 c3         1 PP1      -0.100433
     21 C37          1.3590     1.1480    -3.9610 c3         1 PP1      -0.100433
     22 HC2         -3.6110     0.1300    -3.1870 h5         1 PP1       0.044100
     23 H101        -3.7300     0.7180     1.2060 hn         1 PP1       0.502500
     24 H102        -2.1090     0.6060     1.8020 hn         1 PP1       0.502500
     25 HC12        -1.0750    -1.6040     2.0190 ha         1 PP1       0.122500
     26 HC13        -0.8040    -1.6500     4.4800 ha         1 PP1       0.113500
     27 HC15         2.1810     1.4620     4.2130 ha         1 PP1       0.113500
     28 HC16         1.9000     1.5210     1.7520 ha         1 PP1       0.122500
     29 H241         1.6470    -0.8450     6.3130 hc         1 PP1       0.043700
     30 H242         1.1630     0.8560     6.4270 hc         1 PP1       0.043700
     31 H243        -0.0580    -0.4170     6.5360 hc         1 PP1       0.043700
     32 H291         3.7280    -0.2220    -3.6630 hc         1 PP1       0.050256
     33 H292         3.4270     0.7090    -2.1880 hc         1 PP1       0.050256
     34 H293         3.3500    -1.0660    -2.1530 hc         1 PP1       0.050256
     35 H331         1.3880    -2.2940    -3.3220 hc         1 PP1       0.050256
     36 H332         0.2240    -1.3700    -4.2900 hc         1 PP1       0.050256
     37 H333         1.9110    -1.4720    -4.8050 hc         1 PP1       0.050256
     38 H371         1.5660     2.0550    -3.3800 hc         1 PP1       0.050256
     39 H372         2.0120     1.1530    -4.8420 hc         1 PP1       0.050256
     40 H373         0.3250     1.2040    -4.3190 hc         1 PP1       0.050256
@<TRIPOS>BOND
     1     1     4 1   
     2     1     8 1   
     3     1    18 1   
     4     2     3 ar  
     5     2     7 ar  
     6     2    22 1   
     7     3     4 ar  
     8     4     5 ar  
     9     5     6 ar  
    10     5     9 1   
    11     6     7 ar  
    12     6    10 1   
    13     8     9 2   
    14     9    11 1   
    15    10    23 1   
    16    10    24 1   
    17    11    12 ar  
    18    11    16 ar  
    19    12    13 ar  
    20    12    25 1   
    21    13    14 ar  
    22    13    26 1   
    23    14    15 ar  
    24    14    17 1   
    25    15    16 ar  
    26    15    27 1   
    27    16    28 1   
    28    17    29 1   
    29    17    30 1   
    30    17    31 1   
    31    18    19 1   
    32    18    20 1   
    33    18    21 1   
    34    19    32 1   
    35    19    33 1   
    36    19    34 1   
    37    20    35 1   
    38    20    36 1   
    39    20    37 1   
    40    21    38 1   
    41    21    39 1   
    42    21    40 1   
@<TRIPOS>SUBSTRUCTURE
     1 PP1         1 TEMP              0 ****  ****    0 ROOT
