@<TRIPOS>MOLECULE
PP2
   38    40     1     0     0
SMALL
bcc


@<TRIPOS>ATOM
      1 C1           2.2810    -0.6140    -0.0000 ca         1 PP2       0.563800
      2 N2           3.3540    -1.3980     0.0300 nb         1 PP2      -0.758000
      3 C3           3.0410    -2.6770     0.1120 ca         1 PP2       0.785900
      4 N4           1.8380    -3.2380     0.1940 nb         1 PP2      -0.812000
      5 C5           0.7560    -2.4610     0.1850 ca         1 PP2       0.816200
      6 C6           0.9460    -1.0550     0.0430 ca         1 PP2      -0.539500
      7 C8           0.1520     0.0920    -0.0120 cc         1 PP2       0.415500
      8 N9           0.9900     1.1150    -0.0650 na         1 PP2      -0.196400
      9 N10          2.2760     0.7280    -0.0650 na         1 PP2      -0.158200
     10 C11         -1.2960     0.2820    -0.0230 ca         1 PP2      -0.211900
     11 C12         -1.8970     1.1840     0.8520 ca         1 PP2      -0.088000
     12 C13         -3.2680     1.3660     0.8280 ca         1 PP2      -0.113000
     13 C14         -4.0320     0.6440    -0.0780 ca         1 PP2       0.065400
     14 C15         -3.4490    -0.2530    -0.9610 ca         1 PP2      -0.113000
     15 C16         -2.0760    -0.4300    -0.9310 ca         1 PP2      -0.088000
     16 C22          3.4190     1.6880    -0.1060 c3         1 PP2       0.101700
     17 C23          2.8780     3.1110    -0.1730 c3         1 PP2      -0.122100
     18 C24          4.2450     1.3890    -1.3540 c3         1 PP2      -0.122100
     19 C25          4.2390     1.5010     1.1670 c3         1 PP2      -0.122100
     20 N25         -0.4320    -3.0280     0.3120 nv         1 PP2      -0.916500
     21 CL          -5.7430     0.8680    -0.1070 cl         1 PP2      -0.041400
     22 H11          3.8760    -3.3690     0.1230 h5         1 PP2       0.079100
     23 H1           0.7500     2.0920    -0.1820 hn         1 PP2       0.366700
     24 H12         -1.3020     1.7300     1.5720 ha         1 PP2       0.149000
     25 H13         -3.7360     2.0590     1.5140 ha         1 PP2       0.174000
     26 H15         -4.0520    -0.8010    -1.6710 ha         1 PP2       0.174000
     27 H16         -1.6150    -1.1080    -1.6390 ha         1 PP2       0.149000
     28 H31          2.3010     3.3010    -1.0810 hc         1 PP2       0.069144
     29 H32          2.2840     3.3810     0.7020 hc         1 PP2       0.069144
     30 H33          3.7310     3.7860    -0.1960 hc         1 PP2       0.069144
     31 H41          5.0600     2.1100    -1.4160 hc         1 PP2       0.069144
     32 H42          4.6800     0.3920    -1.3230 hc         1 PP2       0.069144
     33 H43          3.6410     1.4800    -2.2570 hc         1 PP2       0.069144
     34 H51          3.6300     1.6690     2.0560 hc         1 PP2       0.069144
     35 H52          4.6740     0.5050     1.2230 hc         1 PP2       0.069144
     36 H53          5.0540     2.2240     1.1720 hc         1 PP2       0.069144
     37 H2          -1.2830    -2.4980     0.3950 hn         1 PP2       0.469800
     38 H3          -0.4920    -4.0260     0.4320 hn         1 PP2       0.469800
@<TRIPOS>BOND
     1     1     2 ar  
     2     1     6 ar  
     3     1     9 1   
     4     2     3 ar  
     5     3     4 ar  
     6     3    22 1   
     7     4     5 ar  
     8     5     6 ar  
     9     5    20 1   
    10     6     7 1   
    11     7     8 2   
    12     7    10 1   
    13     8     9 1   
    14     8    23 1   
    15     9    16 1   
    16    10    11 ar  
    17    10    15 ar  
    18    11    12 ar  
    19    11    24 1   
    20    12    13 ar  
    21    12    25 1   
    22    13    14 ar  
    23    13    21 1   
    24    14    15 ar  
    25    14    26 1   
    26    15    27 1   
    27    16    17 1   
    28    16    18 1   
    29    16    19 1   
    30    17    28 1   
    31    17    29 1   
    32    17    30 1   
    33    18    31 1   
    34    18    32 1   
    35    18    33 1   
    36    19    34 1   
    37    19    35 1   
    38    19    36 1   
    39    20    37 1   
    40    20    38 1   
@<TRIPOS>SUBSTRUCTURE
     1 PP2         1 TEMP              0 ****  ****    0 ROOT
