@<TRIPOS>MOLECULE
PP2
   38    40     1     0     0
SMALL
No Charge or Current Charge


@<TRIPOS>ATOM
      1 C1           2.2590    -0.5470    -0.4020 ca         1 PP2       0.235500
      2 N2           3.2520    -1.4450    -0.5530 nb         1 PP2      -0.232000
      3 C3           2.9270    -2.7390    -0.3270 ca         1 PP2       0.259900
      4 N4           1.7190    -3.2140     0.0540 nb         1 PP2      -0.286000
      5 C5           0.7460    -2.3060     0.1900 ca         1 PP2       0.487900
      6 C6           0.9880    -0.9600    -0.0560 ca         1 PP2      -0.408900
      7 C8           0.1500     0.2030    -0.0030 cc         1 PP2       0.415500
      8 N9           0.9280     1.3090    -0.2810 na         1 PP2      -0.246700
      9 N10          2.2520     0.8520    -0.4890 na         1 PP2      -0.187500
     10 C11         -1.3120     0.2610     0.0100 ca         1 PP2      -0.211900
     11 C12         -1.9680     1.2230     0.8070 ca         1 PP2      -0.070000
     12 C13         -3.3720     1.3060     0.8090 ca         1 PP2      -0.095000
     13 C14         -4.1280     0.4380     0.0060 ca         1 PP2       0.157000
     14 C15         -3.4830    -0.5090    -0.8050 ca         1 PP2      -0.095000
     15 C16         -2.0800    -0.5950    -0.8080 ca         1 PP2      -0.070000
     16 C22          3.4510     1.6840    -0.1520 c3         1 PP2       0.131000
     17 C23          3.0920     3.1970    -0.1550 c3         1 PP2      -0.122100
     18 C24          4.5660     1.4710    -1.2100 c3         1 PP2      -0.122100
     19 C25          3.9850     1.3200     1.2570 c3         1 PP2      -0.122100
     20 N25         -0.4400    -2.7800     0.6200 nv         1 PP2      -1.026900
     21 Cl          -5.8840     0.5450     0.0070 cl         1 PP2      -0.133000
     22 H11          3.7240    -3.4700    -0.4450 h5         1 PP2       0.079100
     23 H1           0.6260     2.1720    -0.7170 hn         1 PP2       0.417000
     24 H12         -1.3930     1.9030     1.4350 ha         1 PP2       0.131000
     25 H13         -3.8740     2.0430     1.4300 ha         1 PP2       0.156000
     26 H15         -4.0720    -1.1720    -1.4340 ha         1 PP2       0.156000
     27 H16         -1.5920    -1.3200    -1.4580 ha         1 PP2       0.131000
     28 H31          2.6860     3.5040    -1.1270 hc         1 PP2       0.069144
     29 H32          2.3530     3.4360     0.6200 hc         1 PP2       0.069144
     30 H33          3.9790     3.8110     0.0420 hc         1 PP2       0.069144
     31 H41          5.4110     2.1460    -1.0290 hc         1 PP2       0.069144
     32 H42          4.9600     0.4500    -1.1910 hc         1 PP2       0.069144
     33 H43          4.1860     1.6690    -2.2200 hc         1 PP2       0.069144
     34 H51          3.1980     1.4350     2.0120 hc         1 PP2       0.069144
     35 H52          4.3440     0.2850     1.2990 hc         1 PP2       0.069144
     36 H53          4.8220     1.9700     1.5390 hc         1 PP2       0.069144
     37 H2          -1.1160    -2.1180     0.9890 hn         1 PP2       0.525000
     38 H3          -0.4680    -3.7180     1.0080 hn         1 PP2       0.525000
@<TRIPOS>BOND
     1     1     2 ar  
     2     1     6 ar  
     3     1     9 1   
     4     2     3 ar  
     5     3     4 ar  
     6     3    22 1   
     7     4     5 ar  
     8     5     6 ar  
     9     5    20 1   
    10     6     7 1   
    11     7     8 2   
    12     7    10 1   
    13     8     9 1   
    14     8    23 1   
    15     9    16 1   
    16    10    11 ar  
    17    10    15 ar  
    18    11    12 ar  
    19    11    24 1   
    20    12    13 ar  
    21    12    25 1   
    22    13    14 ar  
    23    13    21 1   
    24    14    15 ar  
    25    14    26 1   
    26    15    27 1   
    27    16    17 1   
    28    16    18 1   
    29    16    19 1   
    30    17    28 1   
    31    17    29 1   
    32    17    30 1   
    33    18    31 1   
    34    18    32 1   
    35    18    33 1   
    36    19    34 1   
    37    19    35 1   
    38    19    36 1   
    39    20    37 1   
    40    20    38 1   
@<TRIPOS>SUBSTRUCTURE
     1 PP2         1 TEMP              0 ****  ****    0 ROOT
