@<TRIPOS>MOLECULE
PP4
   70    72     1     0     0
SMALL
abcg2


@<TRIPOS>ATOM
      1 OI          19.3520     6.4500    19.1060 o          1 PP4      -0.637100
      2 C1          22.6820     5.5150    18.3460 ca         1 PP4      -0.093000
      3 C2          22.6950     4.1510    18.4910 ca         1 PP4      -0.130000
      4 C3          23.4980     3.5470    19.4830 ca         1 PP4      -0.130000
      5 C4          24.2760     4.3200    20.3090 ca         1 PP4      -0.102000
      6 C5          24.2830     5.7300    20.1850 ca         1 PP4      -0.045000
      7 C6          23.4660     6.3410    19.1870 ca         1 PP4      -0.036000
      8 C7          23.4530     7.7530    19.0810 ca         1 PP4      -0.114000
      9 C8          24.2080     8.5460    19.9110 ca         1 PP4      -0.043300
     10 C9          25.0320     7.9260    20.8860 ca         1 PP4      -0.074000
     11 C10         25.0690     6.5640    21.0200 ca         1 PP4      -0.113000
     12 C12         19.8860     6.1170    20.1610 c          1 PP4       0.599900
     13 C13         24.0970    10.0450    19.8760 c3         1 PP4      -0.031100
     14 C14         23.1510    10.5470    20.9880 c3         1 PP4      -0.244300
     15 NV          20.1920     6.9370    21.1750 ns         1 PP4      -0.494900
     16 CAV         20.0090     8.3800    21.1550 c3         1 PP4       0.024700
     17 CV          21.3410     8.9890    21.6040 c          1 PP4       0.578100
     18 OV          21.8930     8.5740    22.6250 o          1 PP4      -0.627100
     19 CBV         18.8540     8.8510    22.0630 c3         1 PP4      -0.069700
     20 CV1         18.6710    10.3640    21.9430 c3         1 PP4      -0.089600
     21 CV2         17.5530     8.1220    21.7340 c3         1 PP4      -0.089600
     22 NL          21.8300     9.9640    20.8280 ns         1 PP4      -0.443900
     23 P           23.0370    12.3840    21.0500 p5         1 PP4       1.410400
     24 O           24.4150    12.9760    21.0710 o          1 PP4      -0.815500
     25 OH          22.0280    12.8350    20.0370 o          1 PP4      -0.815500
     26 CA          23.0640    13.2230    23.5850 c3         1 PP4       0.202300
     27 CB          22.0960    13.4940    24.7530 c3         1 PP4      -0.029100
     28 CG          21.5240    12.2530    25.3860 ca         1 PP4      -0.060300
     29 CD1         20.3240    11.7100    24.9280 ca         1 PP4      -0.092500
     30 CD2         22.1930    11.6070    26.4280 ca         1 PP4      -0.092500
     31 CE1         19.8100    10.5430    25.4830 ca         1 PP4      -0.112500
     32 CE2         21.6840    10.4390    26.9860 ca         1 PP4      -0.112500
     33 CZ          20.4910     9.9010    26.5120 ca         1 PP4      -0.113000
     34 C           24.2470    12.3880    24.0610 c          1 PP4       0.567100
     35 CS          26.2470    12.4880    25.3200 c3         1 PP4       0.153900
     36 OP          22.3540    12.5920    22.5370 os         1 PP4      -0.579400
     37 OE          24.3750    11.1960    23.9170 o          1 PP4      -0.471000
     38 H2          22.0840     3.5310    17.8470 ha         1 PP4       0.103000
     39 H3          23.4970     2.4690    19.5890 ha         1 PP4       0.098000
     40 H4          24.8960     3.8600    21.0700 ha         1 PP4       0.102000
     41 H7          22.8120     8.2100    18.3360 ha         1 PP4       0.114000
     42 H9          25.6270     8.5510    21.5410 ha         1 PP4       0.124000
     43 H10         25.6980     6.1030    21.7730 ha         1 PP4       0.103000
     44 H12         20.1630     5.0740    20.3700 h5         1 PP4       0.005200
     45 H131        25.0730    10.5080    20.0290 hc         1 PP4       0.060700
     46 H132        23.7200    10.3730    18.9050 hc         1 PP4       0.060700
     47 H14         23.5300    10.2250    21.9540 h1         1 PP4       0.109700
     48 HNV         20.6610     6.5480    21.9800 hn         1 PP4       0.331500
     49 HAV         19.7880     8.6580    20.1250 h1         1 PP4       0.080700
     50 HBV         19.1390     8.6110    23.0920 hc         1 PP4       0.058700
     51 HV11        17.8740    10.7020    22.6080 hc         1 PP4       0.036700
     52 HV12        19.5780    10.9080    22.2050 hc         1 PP4       0.036700
     53 HV13        18.3980    10.6360    20.9200 hc         1 PP4       0.036700
     54 HV21        16.7590     8.4550    22.4060 hc         1 PP4       0.036700
     55 HV22        17.2390     8.3340    20.7090 hc         1 PP4       0.036700
     56 HV23        17.6560     7.0420    21.8430 hc         1 PP4       0.036700
     57 HNL         21.3100    10.2340    20.0070 hn         1 PP4       0.322500
     58 HA          23.4620    14.1820    23.2480 h1         1 PP4       0.067700
     59 HB1         22.6350    14.0840    25.4960 hc         1 PP4       0.050700
     60 HB2         21.2940    14.1160    24.3520 hc         1 PP4       0.050700
     61 HD1         19.7900    12.2070    24.1290 ha         1 PP4       0.110500
     62 HD2         23.1220    12.0200    26.8050 ha         1 PP4       0.110500
     63 HE1         18.8790    10.1340    25.1110 ha         1 PP4       0.100000
     64 HE2         22.2180     9.9510    27.7920 ha         1 PP4       0.100000
     65 HZ          20.0940     8.9910    26.9450 ha         1 PP4       0.098000
     66 HS1         26.8190    13.2670    25.8140 h1         1 PP4       0.039700
     67 HS2         25.9010    11.7490    26.0420 h1         1 PP4       0.039700
     68 HS3         26.8450    12.0010    24.5510 h1         1 PP4       0.039700
     69 OS          25.1190    13.1590    24.7200 os         1 PP4      -0.456100
     70 H1          22.0570     5.9830    17.5950 ha         1 PP4       0.119000
@<TRIPOS>BOND
     1     1    12 2   
     2     2     3 ar  
     3     2     7 ar  
     4     2    70 1   
     5     3     4 ar  
     6     3    38 1   
     7     4     5 ar  
     8     4    39 1   
     9     5     6 ar  
    10     5    40 1   
    11     6     7 ar  
    12     6    11 ar  
    13     7     8 ar  
    14     8     9 ar  
    15     8    41 1   
    16     9    10 ar  
    17     9    13 1   
    18    10    11 ar  
    19    10    42 1   
    20    11    43 1   
    21    12    15 1   
    22    12    44 1   
    23    13    14 1   
    24    13    45 1   
    25    13    46 1   
    26    14    22 1   
    27    14    23 1   
    28    14    47 1   
    29    15    16 1   
    30    15    48 1   
    31    16    17 1   
    32    16    19 1   
    33    16    49 1   
    34    17    18 2   
    35    17    22 1   
    36    19    20 1   
    37    19    21 1   
    38    19    50 1   
    39    20    51 1   
    40    20    52 1   
    41    20    53 1   
    42    21    54 1   
    43    21    55 1   
    44    21    56 1   
    45    22    57 1   
    46    23    24 1   
    47    23    25 1   
    48    23    36 1   
    49    26    27 1   
    50    26    34 1   
    51    26    36 1   
    52    26    58 1   
    53    27    28 1   
    54    27    59 1   
    55    27    60 1   
    56    28    29 ar  
    57    28    30 ar  
    58    29    31 ar  
    59    29    61 1   
    60    30    32 ar  
    61    30    62 1   
    62    31    33 ar  
    63    31    63 1   
    64    32    33 ar  
    65    32    64 1   
    66    33    65 1   
    67    34    37 2   
    68    34    69 1   
    69    35    66 1   
    70    35    67 1   
    71    35    68 1   
    72    35    69 1   
@<TRIPOS>SUBSTRUCTURE
     1 PP4         1 TEMP              0 ****  ****    0 ROOT
