@<TRIPOS>MOLECULE
PP4
   70    72     1     0     0
SMALL
No Charge or Current Charge


@<TRIPOS>ATOM
      1 OI          18.8520     6.5010    19.1700 o          1 PP4      -0.637100
      2 C1          22.0990     5.6680    17.7290 ca         1 PP4      -0.093000
      3 C2          21.8590     4.2940    17.5550 ca         1 PP4      -0.130000
      4 C3          22.6290     3.3500    18.2550 ca         1 PP4      -0.130000
      5 C4          23.6410     3.7780    19.1320 ca         1 PP4      -0.102000
      6 C5          23.8840     5.1530    19.3120 ca         1 PP4      -0.045000
      7 C6          23.1120     6.1020    18.6060 ca         1 PP4      -0.036000
      8 C7          23.3510     7.4760    18.7890 ca         1 PP4      -0.114000
      9 C8          24.3450     7.9140    19.6870 ca         1 PP4      -0.043300
     10 C9          25.1120     6.9630    20.3870 ca         1 PP4      -0.074000
     11 C10         24.8870     5.5890    20.1970 ca         1 PP4      -0.113000
     12 C12         19.3390     5.9950    20.1740 c          1 PP4       0.599900
     13 C13         24.5530     9.4050    19.9400 c3         1 PP4      -0.031100
     14 C14         23.7050     9.9240    21.1310 c3         1 PP4      -0.244300
     15 NV          19.9660     6.7280    21.1570 ns         1 PP4      -0.494900
     16 CAV         20.1900     8.1940    21.1250 c3         1 PP4       0.024700
     17 CV          21.6480     8.4750    21.5950 c          1 PP4       0.578100
     18 OV          22.2180     7.7880    22.4360 o          1 PP4      -0.627100
     19 CBV         19.1340     8.9660    21.9850 c3         1 PP4      -0.069700
     20 CV1         19.2480    10.5020    21.8210 c3         1 PP4      -0.089600
     21 CV2         17.6750     8.5160    21.7160 c3         1 PP4      -0.089600
     22 NL          22.2690     9.5430    20.9690 ns         1 PP4      -0.443900
     23 P           23.9900    11.7230    21.5280 p5         1 PP4       1.410400
     24 O           25.4450    12.0260    21.6730 o          1 PP4      -0.815500
     25 OH          23.3100    12.5890    20.5170 o          1 PP4      -0.815500
     26 CA          23.1170    13.0190    23.6570 c3         1 PP4       0.202300
     27 CB          21.6990    13.0850    24.2790 c3         1 PP4      -0.029100
     28 CG          21.4900    12.1080    25.4350 ca         1 PP4      -0.060300
     29 CD1         21.3010    10.7330    25.1900 ca         1 PP4      -0.092500
     30 CD2         21.4840    12.5770    26.7640 ca         1 PP4      -0.092500
     31 CE1         21.1080     9.8390    26.2570 ca         1 PP4      -0.112500
     32 CE2         21.2910    11.6830    27.8320 ca         1 PP4      -0.112500
     33 CZ          21.1020    10.3140    27.5790 ca         1 PP4      -0.113000
     34 C           24.2380    13.2130    24.7220 c          1 PP4       0.567100
     35 CS          25.1940    14.8150    26.2550 c3         1 PP4       0.153900
     36 OP          23.2250    11.7680    22.9440 os         1 PP4      -0.579400
     37 OE          25.0690    12.3630    25.0270 o          1 PP4      -0.471000
     38 H2          21.0750     3.9620    16.8780 ha         1 PP4       0.103000
     39 H3          22.4420     2.2870    18.1200 ha         1 PP4       0.098000
     40 H4          24.2310     3.0420    19.6730 ha         1 PP4       0.102000
     41 H7          22.7490     8.2060    18.2530 ha         1 PP4       0.114000
     42 H9          25.8760     7.2900    21.0890 ha         1 PP4       0.124000
     43 H10         25.4840     4.8660    20.7470 ha         1 PP4       0.103000
     44 H12         19.3260     4.9100    20.3930 h5         1 PP4       0.005200
     45 H131        25.6140     9.6070    20.1330 hc         1 PP4       0.060700
     46 H132        24.2960     9.9770    19.0390 hc         1 PP4       0.060700
     47 H14         24.0860     9.4560    22.0460 h1         1 PP4       0.109700
     48 HNV         20.3640     6.2020    21.9280 hn         1 PP4       0.331500
     49 HAV         20.1130     8.5320    20.0840 h1         1 PP4       0.080700
     50 HBV         19.3430     8.7380    23.0390 hc         1 PP4       0.058700
     51 HV11        18.5050    11.0140    22.4440 hc         1 PP4       0.036700
     52 HV12        20.2340    10.8690    22.1250 hc         1 PP4       0.036700
     53 HV13        19.0780    10.7960    20.7780 hc         1 PP4       0.036700
     54 HV21        16.9720     9.1030    22.3190 hc         1 PP4       0.036700
     55 HV22        17.4140     8.6520    20.6600 hc         1 PP4       0.036700
     56 HV23        17.5270     7.4620    21.9780 hc         1 PP4       0.036700
     57 HNL         21.7030    10.0700    20.3110 hn         1 PP4       0.322500
     58 HA          23.2070    13.8650    22.9630 h1         1 PP4       0.067700
     59 HB1         21.5160    14.1120    24.6170 hc         1 PP4       0.050700
     60 HB2         20.9580    12.8990    23.4920 hc         1 PP4       0.050700
     61 HD1         21.3120    10.3520    24.1730 ha         1 PP4       0.110500
     62 HD2         21.6300    13.6340    26.9730 ha         1 PP4       0.110500
     63 HE1         20.9650     8.7800    26.0590 ha         1 PP4       0.100000
     64 HE2         21.2880    12.0520    28.8550 ha         1 PP4       0.100000
     65 HZ          20.9540     9.6230    28.4060 ha         1 PP4       0.098000
     66 HS1         25.0580    15.8510    26.5900 h1         1 PP4       0.039700
     67 HS2         25.0950    14.1590    27.1300 h1         1 PP4       0.039700
     68 HS3         26.2120    14.7160    25.8580 h1         1 PP4       0.039700
     69 OS          24.2170    14.4820    25.2530 os         1 PP4      -0.456100
     70 H1          21.4970     6.3930    17.1860 ha         1 PP4       0.119000
@<TRIPOS>BOND
     1     1    12 2   
     2     2     3 ar  
     3     2     7 ar  
     4     2    70 1   
     5     3     4 ar  
     6     3    38 1   
     7     4     5 ar  
     8     4    39 1   
     9     5     6 ar  
    10     5    40 1   
    11     6     7 ar  
    12     6    11 ar  
    13     7     8 ar  
    14     8     9 ar  
    15     8    41 1   
    16     9    10 ar  
    17     9    13 1   
    18    10    11 ar  
    19    10    42 1   
    20    11    43 1   
    21    12    15 1   
    22    12    44 1   
    23    13    14 1   
    24    13    45 1   
    25    13    46 1   
    26    14    22 1   
    27    14    23 1   
    28    14    47 1   
    29    15    16 1   
    30    15    48 1   
    31    16    17 1   
    32    16    19 1   
    33    16    49 1   
    34    17    18 2   
    35    17    22 1   
    36    19    20 1   
    37    19    21 1   
    38    19    50 1   
    39    20    51 1   
    40    20    52 1   
    41    20    53 1   
    42    21    54 1   
    43    21    55 1   
    44    21    56 1   
    45    22    57 1   
    46    23    24 1   
    47    23    25 1   
    48    23    36 1   
    49    26    27 1   
    50    26    34 1   
    51    26    36 1   
    52    26    58 1   
    53    27    28 1   
    54    27    59 1   
    55    27    60 1   
    56    28    29 ar  
    57    28    30 ar  
    58    29    31 ar  
    59    29    61 1   
    60    30    32 ar  
    61    30    62 1   
    62    31    33 ar  
    63    31    63 1   
    64    32    33 ar  
    65    32    64 1   
    66    33    65 1   
    67    34    37 2   
    68    34    69 1   
    69    35    66 1   
    70    35    67 1   
    71    35    68 1   
    72    35    69 1   
@<TRIPOS>SUBSTRUCTURE
     1 PP4         1 TEMP              0 ****  ****    0 ROOT
