@<TRIPOS>MOLECULE
PP5
   70    72     1     0     0
SMALL
No Charge or Current Charge


@<TRIPOS>ATOM
      1 OI          18.3940     4.3980    20.6050 o          1 PP5      -0.612100
      2 C1          15.6620     5.6740    21.3940 ca         1 PP5      -0.063300
      3 C2          15.4140     4.7000    22.3840 ca         1 PP5      -0.090000
      4 C3          14.9420     5.0630    23.6530 ca         1 PP5      -0.114000
      5 C4          14.7090     6.4110    23.9530 ca         1 PP5      -0.088000
      6 C5          14.9520     7.4020    22.9860 ca         1 PP5      -0.032000
      7 C6          15.4340     7.0460    21.6990 ca         1 PP5      -0.018000
      8 C7          15.6720     8.0810    20.7610 ca         1 PP5      -0.098000
      9 C8          15.4280     9.4240    21.0940 ca         1 PP5      -0.098000
     10 C9          14.9490     9.7600    22.3680 ca         1 PP5      -0.108000
     11 C10         14.7130     8.7500    23.3120 ca         1 PP5      -0.094000
     12 C11         16.1780     5.1860    20.0340 c3         1 PP5      -0.107100
     13 C12         17.7110     5.2060    19.9920 c          1 PP5       0.600100
     14 C14         21.7240     9.7070    19.9770 c3         1 PP5      -0.280000
     15 NV          18.2670     6.2050    19.2230 ns         1 PP5      -0.486900
     16 CAV         19.7180     6.4680    19.0880 c3         1 PP5       0.022700
     17 CV          19.9840     7.9980    19.1960 c          1 PP5       0.575100
     18 OV          19.1300     8.8460    18.9590 o          1 PP5      -0.662100
     19 CBV         20.3060     5.8580    17.7780 c3         1 PP5      -0.066700
     20 CV1         20.3010     4.3110    17.7990 c3         1 PP5      -0.085600
     21 CV2         19.6280     6.3980    16.4940 c3         1 PP5      -0.085600
     22 NL          21.2610     8.3340    19.6120 ns         1 PP5      -0.441900
     23 P           22.3520     9.9120    21.7170 p5         1 PP5       1.396400
     24 O           22.7390    11.3290    21.9880 o          1 PP5      -0.806500
     25 OH          23.4710     8.9500    21.9580 o          1 PP5      -0.806500
     26 CA          19.9550    10.4400    22.7070 c3         1 PP5       0.192300
     27 CB          18.6050     9.7050    22.5200 c3         1 PP5      -0.039100
     28 CG          18.3870     8.5370    23.4750 ca         1 PP5      -0.050300
     29 CD1         17.8420     8.7540    24.7560 ca         1 PP5      -0.092500
     30 CD2         18.7040     7.2240    23.0740 ca         1 PP5      -0.092500
     31 CE1         17.6230     7.6720    25.6260 ca         1 PP5      -0.112500
     32 CE2         18.4820     6.1420    23.9420 ca         1 PP5      -0.112500
     33 CZ          17.9430     6.3660    25.2200 ca         1 PP5      -0.123000
     34 C           20.0440    11.1920    24.0690 c          1 PP5       0.574100
     35 CS          19.0920    13.0040    25.3490 c3         1 PP5       0.153900
     36 OP          21.0280     9.4840    22.5330 os         1 PP5      -0.564400
     37 OE          20.8610    10.9430    24.9500 o          1 PP5      -0.455000
     38 H2          15.5940     3.6480    22.1700 ha         1 PP5       0.110000
     39 H3          14.7600     4.2990    24.4050 ha         1 PP5       0.106000
     40 H4          14.3450     6.6850    24.9400 ha         1 PP5       0.107000
     41 H7          16.0470     7.8700    19.7660 ha         1 PP5       0.113000
     42 H8          15.6160    10.2060    20.3620 ha         1 PP5       0.117000
     43 H9          14.7640    10.8000    22.6250 ha         1 PP5       0.109000
     44 H10         14.3470     9.0180    24.3010 ha         1 PP5       0.106000
     45 H111        15.8550     4.1500    19.8760 hc         1 PP5       0.058700
     46 H112        15.7620     5.7890    19.2210 hc         1 PP5       0.058700
     47 H141        22.5480     9.9940    19.3150 h1         1 PP5       0.061200
     48 H142        20.9090    10.4290    19.8490 h1         1 PP5       0.061200
     49 HNV         17.6280     6.8460    18.7690 hn         1 PP5       0.326500
     50 HAV         20.2360     6.0130    19.9420 h1         1 PP5       0.097700
     51 HBV         21.3600     6.1590    17.7290 hc         1 PP5       0.059700
     52 HV11        20.8260     3.9110    16.9230 hc         1 PP5       0.034200
     53 HV12        20.8060     3.9330    18.6960 hc         1 PP5       0.034200
     54 HV13        19.2770     3.9190    17.7880 hc         1 PP5       0.034200
     55 HV21        20.1180     5.9920    15.6010 hc         1 PP5       0.034200
     56 HV22        18.5690     6.1150    16.4560 hc         1 PP5       0.034200
     57 HV23        19.6950     7.4910    16.4410 hc         1 PP5       0.034200
     58 HNL         21.8930     7.5550    19.7830 hn         1 PP5       0.334500
     59 HA          20.0020    11.2200    21.9350 h1         1 PP5       0.060700
     60 HB1         17.7910    10.4310    22.6300 hc         1 PP5       0.056700
     61 HB2         18.5390     9.3540    21.4850 hc         1 PP5       0.056700
     62 HD1         17.5790     9.7600    25.0750 ha         1 PP5       0.107000
     63 HD2         19.1200     7.0430    22.0870 ha         1 PP5       0.107000
     64 HE1         17.1990     7.8460    26.6120 ha         1 PP5       0.106000
     65 HE2         18.7240     5.1320    23.6220 ha         1 PP5       0.106000
     66 HZ          17.7680     5.5290    25.8910 ha         1 PP5       0.094000
     67 HS1         18.3150    13.7750    25.2750 h1         1 PP5       0.038367
     68 HS2         18.8690    12.3780    26.2220 h1         1 PP5       0.038367
     69 HS3         20.0540    13.5060    25.5150 h1         1 PP5       0.038367
     70 OS          19.1260    12.2130    24.1470 os         1 PP5      -0.468100
@<TRIPOS>BOND
     1     1    13 2   
     2     2     3 ar  
     3     2     7 ar  
     4     2    12 1   
     5     3     4 ar  
     6     3    38 1   
     7     4     5 ar  
     8     4    39 1   
     9     5     6 ar  
    10     5    40 1   
    11     6     7 ar  
    12     6    11 ar  
    13     7     8 ar  
    14     8     9 ar  
    15     8    41 1   
    16     9    10 ar  
    17     9    42 1   
    18    10    11 ar  
    19    10    43 1   
    20    11    44 1   
    21    12    13 1   
    22    12    45 1   
    23    12    46 1   
    24    13    15 1   
    25    14    22 1   
    26    14    23 1   
    27    14    47 1   
    28    14    48 1   
    29    15    16 1   
    30    15    49 1   
    31    16    17 1   
    32    16    19 1   
    33    16    50 1   
    34    17    18 2   
    35    17    22 1   
    36    19    20 1   
    37    19    21 1   
    38    19    51 1   
    39    20    52 1   
    40    20    53 1   
    41    20    54 1   
    42    21    55 1   
    43    21    56 1   
    44    21    57 1   
    45    22    58 1   
    46    23    24 1   
    47    23    25 1   
    48    23    36 1   
    49    26    27 1   
    50    26    34 1   
    51    26    36 1   
    52    26    59 1   
    53    27    28 1   
    54    27    60 1   
    55    27    61 1   
    56    28    29 ar  
    57    28    30 ar  
    58    29    31 ar  
    59    29    62 1   
    60    30    32 ar  
    61    30    63 1   
    62    31    33 ar  
    63    31    64 1   
    64    32    33 ar  
    65    32    65 1   
    66    33    66 1   
    67    34    37 2   
    68    34    70 1   
    69    35    67 1   
    70    35    68 1   
    71    35    69 1   
    72    35    70 1   
@<TRIPOS>SUBSTRUCTURE
     1 PP5         1 TEMP              0 ****  ****    0 ROOT
