@<TRIPOS>MOLECULE
PP5
   70    72     1     0     0
SMALL
abcg2


@<TRIPOS>ATOM
      1 OI          18.4090     4.5550    20.8090 o          1 PP5      -0.612100
      2 C1          15.6250     5.5930    21.3650 ca         1 PP5      -0.063300
      3 C2          15.3130     4.6110    22.2770 ca         1 PP5      -0.090000
      4 C3          14.7890     4.9200    23.5480 ca         1 PP5      -0.114000
      5 C4          14.5780     6.2250    23.9050 ca         1 PP5      -0.088000
      6 C5          14.8710     7.2720    23.0000 ca         1 PP5      -0.032000
      7 C6          15.4010     6.9610    21.7080 ca         1 PP5      -0.018000
      8 C7          15.6750     8.0370    20.8280 ca         1 PP5      -0.098000
      9 C8          15.4430     9.3380    21.1960 ca         1 PP5      -0.098000
     10 C9          14.9280     9.6390    22.4730 ca         1 PP5      -0.108000
     11 C10         14.6510     8.6250    23.3520 ca         1 PP5      -0.094000
     12 C11         16.2250     5.2030    20.0350 c3         1 PP5      -0.107100
     13 C12         17.7510     5.2690    20.0550 c          1 PP5       0.600100
     14 C14         21.5080     9.7310    19.7940 c3         1 PP5      -0.280000
     15 NV          18.3080     6.1390    19.1900 ns         1 PP5      -0.486900
     16 CAV         19.7250     6.4260    19.1370 c3         1 PP5       0.022700
     17 CV          19.9140     7.9460    19.1900 c          1 PP5       0.575100
     18 OV          19.0150     8.7210    18.8570 o          1 PP5      -0.662100
     19 CBV         20.4210     5.8160    17.8940 c3         1 PP5      -0.066700
     20 CV1         20.3520     4.2900    17.9370 c3         1 PP5      -0.085600
     21 CV2         19.8550     6.3600    16.5830 c3         1 PP5      -0.085600
     22 NL          21.1280     8.3440    19.5970 ns         1 PP5      -0.441900
     23 P           22.2580     9.9630    21.4510 p5         1 PP5       1.396400
     24 O           22.6380    11.4030    21.6060 o          1 PP5      -0.806500
     25 OH          23.2520     8.8640    21.6710 o          1 PP5      -0.806500
     26 CA          19.9890    10.5640    22.6860 c3         1 PP5       0.192300
     27 CB          18.6050     9.9180    22.5030 c3         1 PP5      -0.039100
     28 CG          18.3480     8.7540    23.4210 ca         1 PP5      -0.050300
     29 CD1         17.8650     8.9550    24.7150 ca         1 PP5      -0.092500
     30 CD2         18.5930     7.4490    22.9990 ca         1 PP5      -0.092500
     31 CE1         17.6450     7.8800    25.5690 ca         1 PP5      -0.112500
     32 CE2         18.3720     6.3700    23.8460 ca         1 PP5      -0.112500
     33 CZ          17.9000     6.5830    25.1370 ca         1 PP5      -0.123000
     34 C           20.1690    11.1520    24.0800 c          1 PP5       0.574100
     35 CS          19.3440    12.8000    25.5650 c3         1 PP5       0.153900
     36 OP          21.0020     9.6080    22.4430 os         1 PP5      -0.564400
     37 OE          20.9490    10.7610    24.9140 o          1 PP5      -0.455000
     38 H2          15.4790     3.5750    22.0110 ha         1 PP5       0.110000
     39 H3          14.5610     4.1190    24.2400 ha         1 PP5       0.106000
     40 H4          14.1850     6.4760    24.8830 ha         1 PP5       0.107000
     41 H7          16.0750     7.8400    19.8450 ha         1 PP5       0.113000
     42 H8          15.6680    10.1400    20.5050 ha         1 PP5       0.117000
     43 H9          14.7610    10.6700    22.7570 ha         1 PP5       0.109000
     44 H10         14.2620     8.8440    24.3390 ha         1 PP5       0.106000
     45 H111        15.9700     4.1630    19.8230 hc         1 PP5       0.058700
     46 H112        15.8240     5.8080    19.2220 hc         1 PP5       0.058700
     47 H141        22.2340    10.0490    19.0410 h1         1 PP5       0.061200
     48 H142        20.6220    10.3530    19.6870 h1         1 PP5       0.061200
     49 HNV         17.7100     6.7500    18.6550 hn         1 PP5       0.326500
     50 HAV         20.1740     5.9850    20.0270 h1         1 PP5       0.097700
     51 HBV         21.4720     6.1110    17.9650 hc         1 PP5       0.059700
     52 HV11        20.8940     3.8650    17.0890 hc         1 PP5       0.034200
     53 HV12        20.7910     3.8990    18.8560 hc         1 PP5       0.034200
     54 HV13        19.3170     3.9460    17.8800 hc         1 PP5       0.034200
     55 HV21        20.3960     5.9330    15.7370 hc         1 PP5       0.034200
     56 HV22        18.8010     6.0930    16.4720 hc         1 PP5       0.034200
     57 HV23        19.9380     7.4460    16.5230 hc         1 PP5       0.034200
     58 HNL         21.7820     7.6480    19.9240 hn         1 PP5       0.334500
     59 HA          20.0690    11.3990    21.9850 h1         1 PP5       0.060700
     60 HB1         17.8500    10.6910    22.6500 hc         1 PP5       0.056700
     61 HB2         18.5460     9.5940    21.4650 hc         1 PP5       0.056700
     62 HD1         17.6440     9.9600    25.0530 ha         1 PP5       0.107000
     63 HD2         18.9470     7.2740    21.9920 ha         1 PP5       0.107000
     64 HE1         17.2600     8.0550    26.5660 ha         1 PP5       0.106000
     65 HE2         18.5500     5.3650    23.4870 ha         1 PP5       0.106000
     66 HZ          17.7120     5.7430    25.7940 ha         1 PP5       0.094000
     67 HS1         18.5980    13.5880    25.5170 h1         1 PP5       0.038367
     68 HS2         19.0840    12.0720    26.3320 h1         1 PP5       0.038367
     69 HS3         20.3290    13.2170    25.7690 h1         1 PP5       0.038367
     70 OS          19.3280    12.1750    24.2650 os         1 PP5      -0.468100
@<TRIPOS>BOND
     1     1    13 2   
     2     2     3 ar  
     3     2     7 ar  
     4     2    12 1   
     5     3     4 ar  
     6     3    38 1   
     7     4     5 ar  
     8     4    39 1   
     9     5     6 ar  
    10     5    40 1   
    11     6     7 ar  
    12     6    11 ar  
    13     7     8 ar  
    14     8     9 ar  
    15     8    41 1   
    16     9    10 ar  
    17     9    42 1   
    18    10    11 ar  
    19    10    43 1   
    20    11    44 1   
    21    12    13 1   
    22    12    45 1   
    23    12    46 1   
    24    13    15 1   
    25    14    22 1   
    26    14    23 1   
    27    14    47 1   
    28    14    48 1   
    29    15    16 1   
    30    15    49 1   
    31    16    17 1   
    32    16    19 1   
    33    16    50 1   
    34    17    18 2   
    35    17    22 1   
    36    19    20 1   
    37    19    21 1   
    38    19    51 1   
    39    20    52 1   
    40    20    53 1   
    41    20    54 1   
    42    21    55 1   
    43    21    56 1   
    44    21    57 1   
    45    22    58 1   
    46    23    24 1   
    47    23    25 1   
    48    23    36 1   
    49    26    27 1   
    50    26    34 1   
    51    26    36 1   
    52    26    59 1   
    53    27    28 1   
    54    27    60 1   
    55    27    61 1   
    56    28    29 ar  
    57    28    30 ar  
    58    29    31 ar  
    59    29    62 1   
    60    30    32 ar  
    61    30    63 1   
    62    31    33 ar  
    63    31    64 1   
    64    32    33 ar  
    65    32    65 1   
    66    33    66 1   
    67    34    37 2   
    68    34    70 1   
    69    35    67 1   
    70    35    68 1   
    71    35    69 1   
    72    35    70 1   
@<TRIPOS>SUBSTRUCTURE
     1 PP5         1 TEMP              0 ****  ****    0 ROOT
