@<TRIPOS>MOLECULE
PP6
   71    74     1     0     0
SMALL
abcg2


@<TRIPOS>ATOM
      1 OI          18.7440     8.2250    19.1340 o          1 PP6      -0.615100
      2 C1          20.8460     5.2930    19.7790 ca         1 PP6      -0.082300
      3 C2          20.6940     3.9940    20.2070 ca         1 PP6      -0.114000
      4 C3          21.7420     3.2970    20.8450 ca         1 PP6      -0.129000
      5 C4          22.9360     3.9230    21.0880 ca         1 PP6      -0.088000
      6 C5          23.1340     5.2690    20.6940 ca         1 PP6      -0.042000
      7 C6          22.0940     5.9560    19.9980 ca         1 PP6      -0.023000
      8 C7          22.3150     7.3030    19.6240 ca         1 PP6      -0.121000
      9 C8          23.4460     7.9870    20.0000 ca         1 PP6      -0.029300
     10 C9          24.4680     7.2930    20.6920 ca         1 PP6      -0.080000
     11 C10         24.3270     5.9680    21.0040 ca         1 PP6      -0.108000
     12 C11         19.6950     6.0190    19.1310 c3         1 PP6      -0.116100
     13 C12         19.2610     7.3260    19.7960 c          1 PP6       0.593100
     14 C13         23.5380     9.4710    19.7910 c3         1 PP6      -0.039100
     15 C14         22.9000    10.2520    20.9700 c3         1 PP6      -0.234300
     16 NV          19.4790     7.4230    21.1250 ns         1 PP6      -0.483900
     17 CAV         19.5090     8.7020    21.8300 c3         1 PP6       0.024700
     18 CV          21.0010     9.0330    22.0060 c          1 PP6       0.571100
     19 OV          21.6770     8.4500    22.8530 o          1 PP6      -0.622100
     20 CBV         18.7590     8.6630    23.1640 c3         1 PP6      -0.057700
     21 CV1         18.8520    10.0240    23.8530 c3         1 PP6      -0.087100
     22 CV2         17.3020     8.2510    22.9580 c3         1 PP6      -0.087100
     23 NL          21.4910     9.9270    21.1320 ns         1 PP6      -0.451900
     24 P           23.0590    12.0660    20.6890 p5         1 PP6       1.408400
     25 O           24.5040    12.4150    20.5050 o          1 PP6      -0.813500
     26 OH          22.0350    12.4480    19.6620 o          1 PP6      -0.813500
     27 CA          23.4050    13.3070    23.0350 c3         1 PP6       0.192300
     28 CB          22.6550    14.4430    23.7550 c3         1 PP6      -0.029100
     29 CG          21.4640    13.9810    24.5520 ca         1 PP6      -0.057300
     30 CD1         20.1960    13.9180    23.9730 ca         1 PP6      -0.093500
     31 CD2         21.6080    13.5860    25.8840 ca         1 PP6      -0.093500
     32 CE1         19.0990    13.4730    24.7020 ca         1 PP6      -0.118000
     33 CE2         20.5140    13.1350    26.6170 ca         1 PP6      -0.118000
     34 CZ          19.2550    13.0760    26.0270 ca         1 PP6      -0.122000
     35 C           23.9560    12.2970    24.0340 c          1 PP6       0.553100
     36 CS          25.5430    12.0240    25.7680 c3         1 PP6       0.152900
     37 OP          22.5290    12.6870    22.1160 os         1 PP6      -0.579400
     38 OE          23.5440    11.1750    24.2030 o          1 PP6      -0.456000
     39 H2          19.7430     3.4970    20.0580 ha         1 PP6       0.101000
     40 H3          21.5870     2.2720    21.1570 ha         1 PP6       0.102000
     41 H4          23.7390     3.4070    21.6010 ha         1 PP6       0.105000
     42 H7          21.5560     7.8360    19.0690 ha         1 PP6       0.122000
     43 H9          25.3670     7.8270    20.9780 ha         1 PP6       0.118000
     44 H10         25.1170     5.4380    21.5240 ha         1 PP6       0.102000
     45 H111        19.9280     6.2880    18.0990 hc         1 PP6       0.070700
     46 H112        18.8230     5.3620    19.0940 hc         1 PP6       0.070700
     47 H131        24.5790     9.7860    19.7070 hc         1 PP6       0.064200
     48 H132        23.0260     9.7560    18.8700 hc         1 PP6       0.064200
     49 H14         23.4060     9.9960    21.8980 h1         1 PP6       0.093700
     50 HNV         19.9770     6.6640    21.5680 hn         1 PP6       0.322500
     51 HAV         19.0350     9.4310    21.1740 h1         1 PP6       0.087700
     52 HBV         19.2520     7.9170    23.7950 hc         1 PP6       0.061700
     53 HV11        18.3330    10.0060    24.8120 hc         1 PP6       0.035367
     54 HV12        19.8850    10.3210    24.0390 hc         1 PP6       0.035367
     55 HV13        18.3870    10.8000    23.2380 hc         1 PP6       0.035367
     56 HV21        16.7820     8.2030    23.9160 hc         1 PP6       0.035367
     57 HV22        16.7820     8.9780    22.3280 hc         1 PP6       0.035367
     58 HV23        17.2260     7.2730    22.4800 hc         1 PP6       0.035367
     59 HNL         20.8580    10.3430    20.4650 hn         1 PP6       0.332500
     60 HA          24.2590    13.7350    22.5080 h1         1 PP6       0.083700
     61 HB1         23.3680    14.9550    24.4020 hc         1 PP6       0.053200
     62 HB2         22.3420    15.1470    22.9820 hc         1 PP6       0.053200
     63 HD1         20.0690    14.2200    22.9400 ha         1 PP6       0.116000
     64 HD2         22.5820    13.6370    26.3550 ha         1 PP6       0.116000
     65 HE1         18.1240    13.4280    24.2350 ha         1 PP6       0.101000
     66 HE2         20.6460    12.8330    27.6490 ha         1 PP6       0.101000
     67 HZ          18.4030    12.7250    26.5950 ha         1 PP6       0.098000
     68 HS1         26.3230    12.6340    26.2120 h1         1 PP6       0.040367
     69 HS2         24.7840    11.7730    26.5090 h1         1 PP6       0.040367
     70 HS3         25.9630    11.1130    25.3450 h1         1 PP6       0.040367
     71 OS          24.9640    12.8360    24.7260 os         1 PP6      -0.462100
@<TRIPOS>BOND
     1     1    13 2   
     2     2     3 ar  
     3     2     7 ar  
     4     2    12 1   
     5     3     4 ar  
     6     3    39 1   
     7     4     5 ar  
     8     4    40 1   
     9     5     6 ar  
    10     5    41 1   
    11     6     7 ar  
    12     6    11 ar  
    13     7     8 ar  
    14     8     9 ar  
    15     8    42 1   
    16     9    10 ar  
    17     9    14 1   
    18    10    11 ar  
    19    10    43 1   
    20    11    44 1   
    21    12    13 1   
    22    12    45 1   
    23    12    46 1   
    24    13    16 1   
    25    14    15 1   
    26    14    47 1   
    27    14    48 1   
    28    15    23 1   
    29    15    24 1   
    30    15    49 1   
    31    16    17 1   
    32    16    50 1   
    33    17    18 1   
    34    17    20 1   
    35    17    51 1   
    36    18    19 2   
    37    18    23 1   
    38    20    21 1   
    39    20    22 1   
    40    20    52 1   
    41    21    53 1   
    42    21    54 1   
    43    21    55 1   
    44    22    56 1   
    45    22    57 1   
    46    22    58 1   
    47    23    59 1   
    48    24    25 1   
    49    24    26 1   
    50    24    37 1   
    51    27    28 1   
    52    27    35 1   
    53    27    37 1   
    54    27    60 1   
    55    28    29 1   
    56    28    61 1   
    57    28    62 1   
    58    29    30 ar  
    59    29    31 ar  
    60    30    32 ar  
    61    30    63 1   
    62    31    33 ar  
    63    31    64 1   
    64    32    34 ar  
    65    32    65 1   
    66    33    34 ar  
    67    33    66 1   
    68    34    67 1   
    69    35    38 2   
    70    35    71 1   
    71    36    68 1   
    72    36    69 1   
    73    36    70 1   
    74    36    71 1   
@<TRIPOS>SUBSTRUCTURE
     1 PP6         1 TEMP              0 ****  ****    0 ROOT
