@<TRIPOS>MOLECULE
PP6
   71    74     1     0     0
SMALL
No Charge or Current Charge


@<TRIPOS>ATOM
      1 OI          19.0860     9.2850    20.3390 o          1 PP6      -0.615100
      2 C1          19.9820     5.9630    19.4850 ca         1 PP6      -0.082300
      3 C2          19.6140     4.6010    19.4120 ca         1 PP6      -0.114000
      4 C3          20.5770     3.5880    19.3170 ca         1 PP6      -0.129000
      5 C4          21.9370     3.9140    19.3180 ca         1 PP6      -0.088000
      6 C5          22.3370     5.2580    19.3810 ca         1 PP6      -0.042000
      7 C6          21.3710     6.2980    19.4210 ca         1 PP6      -0.023000
      8 C7          21.8420     7.6320    19.4230 ca         1 PP6      -0.121000
      9 C8          23.2120     7.9290    19.5430 ca         1 PP6      -0.029300
     10 C9          24.1480     6.8840    19.5360 ca         1 PP6      -0.080000
     11 C10         23.7130     5.5560    19.4230 ca         1 PP6      -0.108000
     12 C11         18.8200     6.9660    19.6960 c3         1 PP6      -0.116100
     13 C12         19.0960     8.1100    20.6810 c          1 PP6       0.593100
     14 C13         23.6630     9.3740    19.7450 c3         1 PP6      -0.039100
     15 C14         23.5630     9.8330    21.2310 c3         1 PP6      -0.234300
     16 NV          19.5070     7.7260    21.9380 ns         1 PP6      -0.483900
     17 CAV         20.2090     8.6370    22.8710 c3         1 PP6       0.024700
     18 CV          21.7260     8.5920    22.5240 c          1 PP6       0.571100
     19 OV          22.4650     7.6790    22.8770 o          1 PP6      -0.622100
     20 CBV         19.8980     8.3330    24.3660 c3         1 PP6      -0.057700
     21 CV1         20.6750     9.2720    25.3220 c3         1 PP6      -0.087100
     22 CV2         18.3800     8.3910    24.6640 c3         1 PP6      -0.087100
     23 NL          22.1780     9.6660    21.7760 ns         1 PP6      -0.451900
     24 P           24.3030    11.5240    21.5270 p5         1 PP6       1.408400
     25 O           25.7960    11.4640    21.5420 o          1 PP6      -0.813500
     26 OH          23.7700    12.4990    20.5290 o          1 PP6      -0.813500
     27 CA          23.8280    13.0370    23.6990 c3         1 PP6       0.192300
     28 CB          22.7090    14.0010    23.2070 c3         1 PP6      -0.029100
     29 CG          21.3010    13.4100    23.2980 ca         1 PP6      -0.057300
     30 CD1         20.6710    12.8860    22.1510 ca         1 PP6      -0.093500
     31 CD2         20.6110    13.3980    24.5270 ca         1 PP6      -0.093500
     32 CE1         19.3770    12.3450    22.2340 ca         1 PP6      -0.118000
     33 CE2         19.3150    12.8580    24.6090 ca         1 PP6      -0.118000
     34 CZ          18.7000    12.3270    23.4640 ca         1 PP6      -0.122000
     35 C           23.7970    12.8560    25.2450 c          1 PP6       0.553100
     36 CS          24.1280    14.0130    27.3390 c3         1 PP6       0.152900
     37 OP          23.7120    11.7690    23.0100 os         1 PP6      -0.579400
     38 OE          23.6050    11.7890    25.8190 o          1 PP6      -0.456000
     39 H2          18.5640     4.3160    19.4420 ha         1 PP6       0.101000
     40 H3          20.2680     2.5460    19.2680 ha         1 PP6       0.102000
     41 H4          22.6790     3.1200    19.2750 ha         1 PP6       0.105000
     42 H7          21.1620     8.4670    19.3610 ha         1 PP6       0.122000
     43 H9          25.2110     7.0990    19.6220 ha         1 PP6       0.118000
     44 H10         24.4480     4.7540    19.4060 ha         1 PP6       0.102000
     45 H111        18.4820     7.3780    18.7390 hc         1 PP6       0.070700
     46 H112        18.0000     6.3970    20.1500 hc         1 PP6       0.070700
     47 H131        24.6980     9.4950    19.4000 hc         1 PP6       0.064200
     48 H132        23.0590    10.0440    19.1190 hc         1 PP6       0.064200
     49 H14         24.2380     9.2060    21.8230 h1         1 PP6       0.093700
     50 HNV         19.5460     6.7290    22.1150 hn         1 PP6       0.322500
     51 HAV         19.8670     9.6610    22.6790 h1         1 PP6       0.087700
     52 HBV         20.2310     7.3080    24.5750 hc         1 PP6       0.061700
     53 HV11        20.4310     9.0480    26.3670 hc         1 PP6       0.035367
     54 HV12        21.7590     9.1550    25.2030 hc         1 PP6       0.035367
     55 HV13        20.4230    10.3200    25.1290 hc         1 PP6       0.035367
     56 HV21        18.1840     8.1700    25.7200 hc         1 PP6       0.035367
     57 HV22        17.9780     9.3880    24.4430 hc         1 PP6       0.035367
     58 HV23        17.8290     7.6580    24.0640 hc         1 PP6       0.035367
     59 HNL         21.4840    10.3740    21.5570 hn         1 PP6       0.332500
     60 HA          24.7970    13.5050    23.4780 h1         1 PP6       0.083700
     61 HB1         22.7560    14.9270    23.7920 hc         1 PP6       0.053200
     62 HB2         22.9230    14.3130    22.1790 hc         1 PP6       0.053200
     63 HD1         21.1820    12.9010    21.1910 ha         1 PP6       0.116000
     64 HD2         21.0750    13.8100    25.4200 ha         1 PP6       0.116000
     65 HE1         18.8980    11.9420    21.3450 ha         1 PP6       0.101000
     66 HE2         18.7900    12.8500    25.5610 ha         1 PP6       0.101000
     67 HZ          17.6980    11.9090    23.5280 ha         1 PP6       0.098000
     68 HS1         24.3750    15.0100    27.7260 h1         1 PP6       0.040367
     69 HS2         23.1510    13.7230    27.7470 h1         1 PP6       0.040367
     70 HS3         24.8840    13.3080    27.7090 h1         1 PP6       0.040367
     71 OS          24.0990    14.0280    25.9000 os         1 PP6      -0.462100
@<TRIPOS>BOND
     1     1    13 2   
     2     2     3 ar  
     3     2     7 ar  
     4     2    12 1   
     5     3     4 ar  
     6     3    39 1   
     7     4     5 ar  
     8     4    40 1   
     9     5     6 ar  
    10     5    41 1   
    11     6     7 ar  
    12     6    11 ar  
    13     7     8 ar  
    14     8     9 ar  
    15     8    42 1   
    16     9    10 ar  
    17     9    14 1   
    18    10    11 ar  
    19    10    43 1   
    20    11    44 1   
    21    12    13 1   
    22    12    45 1   
    23    12    46 1   
    24    13    16 1   
    25    14    15 1   
    26    14    47 1   
    27    14    48 1   
    28    15    23 1   
    29    15    24 1   
    30    15    49 1   
    31    16    17 1   
    32    16    50 1   
    33    17    18 1   
    34    17    20 1   
    35    17    51 1   
    36    18    19 2   
    37    18    23 1   
    38    20    21 1   
    39    20    22 1   
    40    20    52 1   
    41    21    53 1   
    42    21    54 1   
    43    21    55 1   
    44    22    56 1   
    45    22    57 1   
    46    22    58 1   
    47    23    59 1   
    48    24    25 1   
    49    24    26 1   
    50    24    37 1   
    51    27    28 1   
    52    27    35 1   
    53    27    37 1   
    54    27    60 1   
    55    28    29 1   
    56    28    61 1   
    57    28    62 1   
    58    29    30 ar  
    59    29    31 ar  
    60    30    32 ar  
    61    30    63 1   
    62    31    33 ar  
    63    31    64 1   
    64    32    34 ar  
    65    32    65 1   
    66    33    34 ar  
    67    33    66 1   
    68    34    67 1   
    69    35    38 2   
    70    35    71 1   
    71    36    68 1   
    72    36    69 1   
    73    36    70 1   
    74    36    71 1   
@<TRIPOS>SUBSTRUCTURE
     1 PP6         1 TEMP              0 ****  ****    0 ROOT
