@<TRIPOS>MOLECULE
PP7
   90    89     1     0     0
SMALL
abcg2


@<TRIPOS>ATOM
      1 NV2         18.3980     5.6640    18.4220 ns         1 PP7      -0.360000
      2 CV1         16.3960     4.7810    17.3840 c3         1 PP7      -0.182000
      3 CV6         19.4950     5.7260    19.3620 c3         1 PP7       0.003000
      4 CV2         15.1070     4.6880    18.2230 c3         1 PP7      -0.097000
      5 CV7         20.8810     5.8220    18.6740 c3         1 PP7      -0.105000
      6 CV3         15.0760     5.7390    19.3340 c3         1 PP7      -0.208000
      7 CV8         21.1520     4.5780    17.8310 c3         1 PP7      -0.207000
      8 CV4         13.8850     4.8130    17.3150 c3         1 PP7      -0.208000
      9 CV9         21.0370     7.0980    17.8480 c3         1 PP7      -0.207000
     10 CV5         17.6330     4.5690    18.2300 c2         1 PP7       0.308000
     11 CR          19.2630     6.9230    20.2880 c2         1 PP7       0.296000
     12 OV1         17.8970     3.4700    18.7230 o          1 PP7      -0.385000
     13 OV2         18.5090     7.8420    19.9790 o          1 PP7      -0.379000
     14 N1          19.9750     6.9060    21.4330 ns         1 PP7      -0.373000
     15 C1          19.9410     7.9920    22.3980 c3         1 PP7      -0.009000
     16 C2          19.2050     7.5780    23.6720 c3         1 PP7      -0.187000
     17 C4          19.0080     8.6870    24.6930 c2         1 PP7       0.332000
     18 O2          19.2260     8.5100    25.8920 o          1 PP7      -0.364000
     19 N2          18.5390     9.8530    24.2070 ns         1 PP7      -0.387000
     20 CB          18.3400    11.0360    25.0320 c3         1 PP7       0.036000
     21 C3          21.3720     8.4850    22.6850 c2         1 PP7       0.279000
     22 O1          21.8710     8.4150    23.8070 o          1 PP7      -0.360000
     23 NL          22.0060     8.9710    21.6100 ns         1 PP7      -0.344000
     24 CAL         23.4020     9.4180    21.6100 c3         1 PP7      -0.592000
     25 CBL         24.4370     8.6060    21.0190 c1         1 PP7      -0.050000
     26 CGL         23.9950     7.4160    20.2710 c3         1 PP7      -1.121000
     27 CL1         24.9320     7.0130    19.1330 cl         1 PP7       1.333500
     28 CL2         23.9600     6.3080    21.3650 cl         1 PP7       1.333500
     29 P           23.4120    11.0680    20.6350 p5         1 PP7       1.896000
     30 O3          22.5740    10.7870    19.4300 o          1 PP7      -0.793000
     31 O4          24.7770    11.6560    20.5390 o          1 PP7      -0.793000
     32 O5          22.5110    11.9710    21.6630 os         1 PP7      -0.720000
     33 C5          23.0860    13.0860    22.3320 c3         1 PP7       0.110000
     34 C6          21.9630    13.9060    22.9930 c3         1 PP7      -0.112000
     35 C7          25.8710    13.4480    24.7400 c3         1 PP7      -0.059000
     36 CE2         21.3220    13.2620    24.1960 ca         1 PP7      -0.061000
     37 CZ          21.8620    13.4640    25.4700 ca         1 PP7      -0.123000
     38 CD2         20.1880    12.4630    24.0730 ca         1 PP7      -0.085000
     39 CE1         21.2860    12.8710    26.5850 ca         1 PP7      -0.134000
     40 CD1         20.1520    12.0760    26.4440 ca         1 PP7      -0.104000
     41 CG          19.5910    11.8720    25.1870 ca         1 PP7      -0.106000
     42 CT          24.1150    12.6530    23.3690 c2         1 PP7       0.288000
     43 OT1         24.9040    13.6790    23.6920 os         1 PP7      -0.271000
     44 OT2         24.1910    11.5560    23.8690 o          1 PP7      -0.323000
     45 HV2         18.0500     6.5500    18.0900 hn         1 PP7       0.246000
     46 HV11        16.3840     4.0040    16.6170 hc         1 PP7       0.098000
     47 HV12        16.4330     5.7500    16.8810 hc         1 PP7       0.098000
     48 HV6         19.4710     4.8100    19.9520 h1         1 PP7       0.126000
     49 HCV2        15.0920     3.6970    18.6870 hc         1 PP7       0.101000
     50 HCV7        21.6170     5.8440    19.4820 hc         1 PP7       0.093000
     51 HV31        14.1510     5.6600    19.9080 hc         1 PP7       0.074333
     52 HV32        15.9120     5.6240    20.0270 hc         1 PP7       0.074333
     53 HV33        15.1270     6.7470    18.9120 hc         1 PP7       0.074333
     54 HV81        22.1560     4.6270    17.4060 hc         1 PP7       0.080833
     55 HV82        20.4400     4.5010    17.0070 hc         1 PP7       0.080833
     56 HV83        21.0770     3.6700    18.4310 hc         1 PP7       0.080833
     57 HV41        12.9630     4.7110    17.8910 hc         1 PP7       0.074333
     58 HV43        13.8680     5.7910    16.8240 hc         1 PP7       0.074333
     59 HV42        13.8890     4.0450    16.5380 hc         1 PP7       0.074333
     60 HV91        22.0340     7.1370    17.4080 hc         1 PP7       0.080833
     61 HV92        20.3100     7.1280    17.0330 hc         1 PP7       0.080833
     62 HV93        20.9060     7.9970    18.4520 hc         1 PP7       0.080833
     63 H1          20.5470     6.1010    21.6440 hn         1 PP7       0.236000
     64 H1A         19.4090     8.7990    21.8950 h1         1 PP7       0.127000
     65 HC21        18.2200     7.2030    23.3820 hc         1 PP7       0.110000
     66 HC22        19.7400     6.7710    24.1690 hc         1 PP7       0.110000
     67 H2          18.3520     9.9380    23.2220 hn         1 PP7       0.229000
     68 HCB1        17.9850    10.7190    26.0110 h1         1 PP7       0.089000
     69 HCB2        17.5530    11.6260    24.5610 h1         1 PP7       0.089000
     70 HL          21.5120     9.0240    20.7320 hn         1 PP7       0.240000
     71 HAL         23.6710     9.7650    22.6070 h1         1 PP7       0.196000
     72 HBL1        23.4370     9.8460    17.1920 DU         1 PP7       0.000000
     73 HBL2        23.6400     9.5760    16.5270 DU         1 PP7       0.000000
     74 HGL         22.9750     7.5020    19.8860 h2         1 PP7       0.125000
     75 HL11        25.9420     6.8380    19.5070 ha         1 PP7      -0.283167
     76 HL13        24.9790     7.7980    18.3760 ha         1 PP7      -0.283167
     77 HL12        24.5720     6.0990    18.6530 ha         1 PP7      -0.283167
     78 HL21        23.6710     5.3740    20.8810 ha         1 PP7      -0.283167
     79 HL23        24.9450     6.1750    21.8170 ha         1 PP7      -0.283167
     80 HL22        23.2410     6.5280    22.1510 ha         1 PP7      -0.283167
     81 HC5         23.5950    13.7260    21.6120 h1         1 PP7       0.111000
     82 HC61        22.3930    14.8670    23.2770 hc         1 PP7       0.092500
     83 HC62        21.2190    14.0940    22.2170 hc         1 PP7       0.092500
     84 H7A         26.4030    14.3880    24.8530 h1         1 PP7       0.082333
     85 H7B         26.5530    12.6520    24.4500 h1         1 PP7       0.082333
     86 H7C         25.3600    13.1820    25.6640 h1         1 PP7       0.082333
     87 HZ          22.7360    14.0950    25.5870 ha         1 PP7       0.123000
     88 HD2         19.7560    12.3080    23.0900 ha         1 PP7       0.134000
     89 HE1         21.7150    13.0340    27.5660 ha         1 PP7       0.121000
     90 HD1         19.6980    11.6170    27.3140 ha         1 PP7       0.127000
@<TRIPOS>BOND
     1     1     3 1   
     2     1    10 1   
     3     1    45 1   
     4     2     4 1   
     5     2    10 1   
     6     2    46 1   
     7     2    47 1   
     8     3     5 1   
     9     3    11 1   
    10     3    48 1   
    11     4     6 1   
    12     4     8 1   
    13     4    49 1   
    14     5     7 1   
    15     5     9 1   
    16     5    50 1   
    17     6    51 1   
    18     6    52 1   
    19     6    53 1   
    20     7    54 1   
    21     7    55 1   
    22     7    56 1   
    23     8    57 1   
    24     8    58 1   
    25     8    59 1   
    26     9    60 1   
    27     9    61 1   
    28     9    62 1   
    29    10    12 1   
    30    11    13 1   
    31    11    14 1   
    32    14    15 1   
    33    14    63 1   
    34    15    16 1   
    35    15    21 1   
    36    15    64 1   
    37    16    17 1   
    38    16    65 1   
    39    16    66 1   
    40    17    18 1   
    41    17    19 1   
    42    19    20 1   
    43    19    67 1   
    44    20    41 1   
    45    20    68 1   
    46    20    69 1   
    47    21    22 1   
    48    21    23 1   
    49    23    24 1   
    50    23    70 1   
    51    24    25 1   
    52    24    29 1   
    53    24    71 1   
    54    25    26 1   
    55    26    27 1   
    56    26    28 1   
    57    26    74 1   
    58    27    75 1   
    59    27    76 1   
    60    27    77 1   
    61    28    78 1   
    62    28    79 1   
    63    28    80 1   
    64    29    30 1   
    65    29    31 1   
    66    29    32 1   
    67    32    33 1   
    68    33    34 1   
    69    33    42 1   
    70    33    81 1   
    71    34    36 1   
    72    34    82 1   
    73    34    83 1   
    74    35    43 1   
    75    35    84 1   
    76    35    85 1   
    77    35    86 1   
    78    36    37 1   
    79    36    38 1   
    80    37    39 1   
    81    37    87 1   
    82    38    41 1   
    83    38    88 1   
    84    39    40 1   
    85    39    89 1   
    86    40    41 1   
    87    40    90 1   
    88    42    43 1   
    89    42    44 1   
@<TRIPOS>SUBSTRUCTURE
     1 PP7         1 TEMP              0 ****  ****    0 ROOT
