@<TRIPOS>MOLECULE
PP8
   89    89     1     0     0
SMALL
No Charge or Current Charge


@<TRIPOS>ATOM
      1 NV2         17.9730     5.5620    18.4400 ns         1 PP8      -0.361000
      2 CV1         16.0430     4.3140    17.6210 c3         1 PP8      -0.182000
      3 CV6         19.2170     5.8430    19.1790 c3         1 PP8       0.003000
      4 CV2         14.7120     4.5450    18.3830 c3         1 PP8      -0.097000
      5 CV7         20.4630     5.8000    18.2430 c3         1 PP8      -0.105000
      6 CV3         14.6450     5.9440    19.0360 c3         1 PP8      -0.208000
      7 CV8         20.7090     4.3820    17.6720 c3         1 PP8      -0.207000
      8 CV4         13.4970     4.3150    17.4570 c3         1 PP8      -0.208000
      9 CV9         20.4080     6.8430    17.0980 c3         1 PP8      -0.207000
     10 CV5         17.2710     4.3530    18.5050 c          1 PP8       0.309000
     11 CR          19.1000     7.1600    19.9460 c          1 PP8       0.297000
     12 OV1         17.6270     3.3980    19.1870 o          1 PP8      -0.385000
     13 OV2         18.4520     8.1230    19.5410 o          1 PP8      -0.375000
     14 N1          19.7730     7.1620    21.1780 ns         1 PP8      -0.374000
     15 C1          19.7800     8.3130    22.0970 c3         1 PP8      -0.004000
     16 C2          18.4640     8.3210    22.9260 c3         1 PP8      -0.189000
     17 C4          18.2350     9.5920    23.7090 c          1 PP8       0.332000
     18 O2          18.1330     9.5650    24.9280 o          1 PP8      -0.383000
     19 N2          18.0370    10.7810    23.0130 nt         1 PP8      -0.434000
     20 C3          21.0600     8.3350    22.9400 c          1 PP8       0.279000
     21 O1          21.0700     8.3500    24.1690 o          1 PP8      -0.376000
     22 NL          22.2420     8.3050    22.1730 ns         1 PP8      -0.320000
     23 CAL         23.5400     8.9180    22.6050 c3         1 PP8      -0.574000
     24 CBL         24.7310     7.9230    22.5340 c3         1 PP8      -0.100000
     25 CGL         24.3860     6.5330    23.1890 c3         1 PP8      -1.122000
     26 Cl1         25.8220     5.4830    23.8170 cl         1 PP8       1.338500
     27 Cl2         23.8440     6.6270    25.0310 cl         1 PP8       1.338500
     28 P           23.8760    10.6080    21.8300 p5         1 PP8       1.891000
     29 O3          23.3690    10.6390    20.4210 o          1 PP8      -0.814000
     30 O4          25.3260    10.9580    21.9570 o          1 PP8      -0.814000
     31 O5          22.9440    11.5000    22.8110 os         1 PP8      -0.723000
     32 C5          22.9280    12.9440    22.7010 c3         1 PP8       0.115000
     33 C6          21.5490    13.4330    23.2100 c3         1 PP8      -0.115000
     34 C7          25.4550    15.5870    23.6140 c3         1 PP8      -0.059000
     35 CE2         21.3210    13.1930    24.7010 ca         1 PP8      -0.069000
     36 CZ          21.5880    14.2120    25.6380 ca         1 PP8      -0.116500
     37 CD2         20.8430    11.9480    25.1520 ca         1 PP8      -0.116500
     38 CE1         21.3810    13.9850    27.0120 ca         1 PP8      -0.133500
     39 CD1         20.9020    12.7390    27.4540 ca         1 PP8      -0.132000
     40 CG          20.6320    11.7210    26.5230 ca         1 PP8      -0.133500
     41 CT          24.1050    13.5760    23.4630 c          1 PP8       0.296000
     42 OT1         24.3860    14.8420    23.0040 os         1 PP8      -0.270000
     43 OT2         24.6780    13.0230    24.4030 o          1 PP8      -0.338000
     44 HNV2        17.5670     6.3150    17.8970 hn         1 PP8       0.246000
     45 HV11        16.0060     3.3350    17.1280 hc         1 PP8       0.098000
     46 HV12        16.1320     5.0470    16.8090 hc         1 PP8       0.098000
     47 HV6         19.3440     5.0510    19.9290 h1         1 PP8       0.127000
     48 HV2         14.6560     3.7980    19.1890 hc         1 PP8       0.101000
     49 HV7         21.3360     6.0470    18.8630 hc         1 PP8       0.092000
     50 HV31        13.6920     6.0820    19.5630 hc         1 PP8       0.074500
     51 HV32        15.4500     6.0780    19.7690 hc         1 PP8       0.074500
     52 HV33        14.7340     6.7360    18.2810 hc         1 PP8       0.074500
     53 HV81        21.6470     4.3490    17.1030 hc         1 PP8       0.080500
     54 HV82        20.7790     3.6430    18.4790 hc         1 PP8       0.080500
     55 HV83        19.8960     4.0780    17.0010 hc         1 PP8       0.080500
     56 HV41        12.5570     4.4280    18.0110 hc         1 PP8       0.074500
     57 HV42        13.4930     5.0330    16.6270 hc         1 PP8       0.074500
     58 HV43        13.5140     3.3030    17.0330 hc         1 PP8       0.074500
     59 HV91        21.3240     6.8070    16.4960 hc         1 PP8       0.080500
     60 HV92        19.5580     6.6570    16.4300 hc         1 PP8       0.080500
     61 HV93        20.3150     7.8610    17.4950 hc         1 PP8       0.080500
     62 HN1         20.2960     6.3330    21.4400 hn         1 PP8       0.237000
     63 H1          19.7950     9.2230    21.4800 h1         1 PP8       0.127000
     64 H21         17.6110     8.1740    22.2530 hc         1 PP8       0.113500
     65 H22         18.4620     7.4590    23.6040 hc         1 PP8       0.113500
     66 HN21        18.0260    10.7810    22.0020 hn         1 PP8       0.229500
     67 HN22        17.8510    11.6320    23.5240 hn         1 PP8       0.229500
     68 HNL         22.1460     8.0220    21.2010 hn         1 PP8       0.243000
     69 HAL         23.4310     9.2760    23.6320 h1         1 PP8       0.137000
     70 HBL1        25.0220     7.7910    21.4810 hc         1 PP8       0.089000
     71 HBL2        25.6050     8.3860    23.0230 hc         1 PP8       0.089000
     72 HGL         23.6580     5.9150    22.6490 h2         1 PP8       0.114000
     73 HL11        22.7200     7.2700     8.9570 ha         1 PP8      -0.290667
     74 HL12        22.7200     7.2700     8.9570 ha         1 PP8      -0.290667
     75 HL13        22.7200     7.2700     8.9570 ha         1 PP8      -0.290667
     76 HL21        24.9290     5.5160    20.5590 ha         1 PP8      -0.290667
     77 HL22        24.9290     5.5140    20.5600 ha         1 PP8      -0.290667
     78 HL23        24.9280     5.5140    20.5610 ha         1 PP8      -0.290667
     79 H5          23.0130    13.2480    21.6450 h1         1 PP8       0.108000
     80 H61         21.4570    14.5040    22.9870 hc         1 PP8       0.092000
     81 H62         20.7620    12.9420    22.6240 hc         1 PP8       0.092000
     82 H71         25.5410    16.5820    23.1560 h1         1 PP8       0.079667
     83 H72         25.2740    15.7220    24.6890 h1         1 PP8       0.079667
     84 H73         26.4150    15.0670    23.4880 h1         1 PP8       0.079667
     85 HZ          21.9630    15.1780    25.3050 ha         1 PP8       0.131000
     86 HD2         20.6450    11.1530    24.4370 ha         1 PP8       0.131000
     87 HE1         21.5940    14.7730    27.7320 ha         1 PP8       0.129500
     88 HD1         20.7420    12.5630    28.5160 ha         1 PP8       0.120000
     89 HG          20.2620    10.7550    26.8610 ha         1 PP8       0.129500
@<TRIPOS>BOND
     1     1     3 1   
     2     1    10 1   
     3     1    44 1   
     4     2     4 1   
     5     2    10 1   
     6     2    45 1   
     7     2    46 1   
     8     3     5 1   
     9     3    11 1   
    10     3    47 1   
    11     4     6 1   
    12     4     8 1   
    13     4    48 1   
    14     5     7 1   
    15     5     9 1   
    16     5    49 1   
    17     6    50 1   
    18     6    51 1   
    19     6    52 1   
    20     7    53 1   
    21     7    54 1   
    22     7    55 1   
    23     8    56 1   
    24     8    57 1   
    25     8    58 1   
    26     9    59 1   
    27     9    60 1   
    28     9    61 1   
    29    10    12 1   
    30    11    13 1   
    31    11    14 1   
    32    14    15 1   
    33    14    62 1   
    34    15    16 1   
    35    15    20 1   
    36    15    63 1   
    37    16    17 1   
    38    16    64 1   
    39    16    65 1   
    40    17    18 1   
    41    17    19 1   
    42    19    66 1   
    43    19    67 1   
    44    20    21 1   
    45    20    22 1   
    46    22    23 1   
    47    22    68 1   
    48    23    24 1   
    49    23    28 1   
    50    23    69 1   
    51    24    25 1   
    52    24    70 1   
    53    24    71 1   
    54    25    26 1   
    55    25    27 1   
    56    25    72 1   
    57    26    73 1   
    58    26    74 1   
    59    26    75 1   
    60    27    76 1   
    61    27    77 1   
    62    27    78 1   
    63    28    29 1   
    64    28    30 1   
    65    28    31 1   
    66    31    32 1   
    67    32    33 1   
    68    32    41 1   
    69    32    79 1   
    70    33    35 1   
    71    33    80 1   
    72    33    81 1   
    73    34    42 1   
    74    34    82 1   
    75    34    83 1   
    76    34    84 1   
    77    35    36 ar  
    78    35    37 ar  
    79    36    38 ar  
    80    36    85 1   
    81    37    40 ar  
    82    37    86 1   
    83    38    39 ar  
    84    38    87 1   
    85    39    40 ar  
    86    39    88 1   
    87    40    89 1   
    88    41    42 1   
    89    41    43 1   
@<TRIPOS>SUBSTRUCTURE
     1 PP8         1 TEMP              0 ****  ****    0 ROOT
