@<TRIPOS>MOLECULE
PP8
   89    89     1     0     0
SMALL
abcg2


@<TRIPOS>ATOM
      1 NV2         18.1150     5.5460    18.0840 ns         1 PP8      -0.361000
      2 CV1         16.2960     4.4120    16.9550 c3         1 PP8      -0.182000
      3 CV6         19.1420     5.7620    19.0780 c3         1 PP8       0.003000
      4 CV2         14.9500     4.2430    17.6860 c3         1 PP8      -0.097000
      5 CV7         20.5550     5.9470    18.4620 c3         1 PP8      -0.105000
      6 CV3         14.7040     5.3810    18.6780 c3         1 PP8      -0.208000
      7 CV8         20.9740     4.6920    17.6990 c3         1 PP8      -0.207000
      8 CV4         13.8130     4.1410    16.6700 c3         1 PP8      -0.208000
      9 CV9         20.6470     7.1920    17.5800 c3         1 PP8      -0.207000
     10 CV5         17.4650     4.3760    17.9150 c2         1 PP8       0.309000
     11 CR          18.7630     6.9820    19.9170 c2         1 PP8       0.297000
     12 OV1         17.7780     3.3430    18.5100 o          1 PP8      -0.385000
     13 OV2         17.9870     7.8400    19.5030 o          1 PP8      -0.375000
     14 N1          19.3840     7.0560    21.1110 ns         1 PP8      -0.374000
     15 C1          19.2940     8.2140    21.9870 c3         1 PP8      -0.004000
     16 C2          18.6120     7.8400    23.3000 c3         1 PP8      -0.189000
     17 C4          18.3930     8.9640    24.2960 c2         1 PP8       0.332000
     18 O2          18.4770     8.7630    25.5070 o          1 PP8      -0.383000
     19 N2          18.0680    10.1700    23.7930 nt         1 PP8      -0.434000
     20 C3          20.7150     8.7730    22.2010 c2         1 PP8       0.279000
     21 O1          21.3310     8.5750    23.2470 o          1 PP8      -0.376000
     22 NL          21.2020     9.4300    21.1410 ns         1 PP8      -0.320000
     23 CAL         22.5730     9.9050    20.9970 c3         1 PP8      -0.574000
     24 CBL         23.3720     9.0130    20.0400 c3         1 PP8      -0.100000
     25 CGL         23.5840     7.5760    20.5300 c3         1 PP8      -1.122000
     26 CL1         24.1970     6.7260    19.4160 cl         1 PP8       1.338500
     27 CL2         24.4560     7.5230    21.7860 cl         1 PP8       1.338500
     28 P           22.5290    11.6570    20.4300 p5         1 PP8       1.891000
     29 O3          21.4330    11.7870    19.4130 o          1 PP8      -0.814000
     30 O4          23.9120    12.1430    20.1180 o          1 PP8      -0.814000
     31 O5          22.0090    12.4030    21.8070 os         1 PP8      -0.723000
     32 C5          22.8080    13.3870    22.4330 c3         1 PP8       0.115000
     33 C6          21.9620    14.1220    23.4930 c3         1 PP8      -0.115000
     34 C7          26.1160    13.3310    24.0830 c3         1 PP8      -0.059000
     35 CE2         21.7300    13.3270    24.7510 ca         1 PP8      -0.069000
     36 CZ          22.4860    13.5930    25.8940 ca         1 PP8      -0.116500
     37 CD2         20.8010    12.2860    24.7920 ca         1 PP8      -0.116500
     38 CE1         22.3250    12.8350    27.0500 ca         1 PP8      -0.133500
     39 CD1         21.4010    11.7970    27.0770 ca         1 PP8      -0.132000
     40 CG          20.6380    11.5240    25.9440 ca         1 PP8      -0.133500
     41 CT          24.0420    12.7770    23.0880 c2         1 PP8       0.296000
     42 OT1         24.9390    13.7330    23.3510 os         1 PP8      -0.270000
     43 OT2         24.1860    11.6150    23.3820 o          1 PP8      -0.338000
     44 HNV2        17.7300     6.3710    17.6510 hn         1 PP8       0.246000
     45 HV11        16.4280     3.5900    16.2480 hc         1 PP8       0.098000
     46 HV12        16.2870     5.3450    16.3870 hc         1 PP8       0.098000
     47 HV6         19.1630     4.8780    19.7160 h1         1 PP8       0.127000
     48 HV2         14.9980     3.3030    18.2440 hc         1 PP8       0.101000
     49 HV7         21.2360     6.0740    19.3070 hc         1 PP8       0.092000
     50 HV31        13.7460     5.2480    19.1850 hc         1 PP8       0.074500
     51 HV32        15.4830     5.4280    19.4420 hc         1 PP8       0.074500
     52 HV33        14.6820     6.3450    18.1620 hc         1 PP8       0.074500
     53 HV81        21.9930     4.8060    17.3240 hc         1 PP8       0.080500
     54 HV82        20.9400     3.8090    18.3390 hc         1 PP8       0.080500
     55 HV83        20.3170     4.5190    16.8440 hc         1 PP8       0.080500
     56 HV41        12.8560     3.9890    17.1740 hc         1 PP8       0.074500
     57 HV42        13.7400     5.0570    16.0780 hc         1 PP8       0.074500
     58 HV43        13.9730     3.3070    15.9820 hc         1 PP8       0.074500
     59 HV91        21.6530     7.2820    17.1660 hc         1 PP8       0.080500
     60 HV92        19.9470     7.1320    16.7440 hc         1 PP8       0.080500
     61 HV93        20.4360     8.1050    18.1390 hc         1 PP8       0.080500
     62 HN1         19.9880     6.2990    21.3940 hn         1 PP8       0.237000
     63 H1          18.7020     8.9440    21.4370 h1         1 PP8       0.127000
     64 H21         17.6310     7.4210    23.0620 hc         1 PP8       0.113500
     65 H22         19.1860     7.0700    23.8120 hc         1 PP8       0.113500
     66 HN21        17.9530    10.3380    22.8080 hn         1 PP8       0.229500
     67 HN22        17.8630    10.9280    24.4250 hn         1 PP8       0.229500
     68 HNL         20.5990     9.5760    20.3450 hn         1 PP8       0.243000
     69 HAL         23.0240     9.9060    21.9850 h1         1 PP8       0.137000
     70 HBL1        22.8590     8.9920    19.0740 hc         1 PP8       0.089000
     71 HBL2        24.3460     9.4800    19.8690 hc         1 PP8       0.089000
     72 HGL         22.6050     7.1520    20.7760 h2         1 PP8       0.114000
     73 HL11        24.3150     5.6880    19.7340 ha         1 PP8      -0.290667
     74 HL12        23.5750     6.7370    18.5200 ha         1 PP8      -0.290667
     75 HL13        25.1860     7.1070    19.1440 ha         1 PP8      -0.290667
     76 HL21        24.5950     6.4910    22.1160 ha         1 PP8      -0.290667
     77 HL22        25.4440     7.9470    21.5830 ha         1 PP8      -0.290667
     78 HL23        24.0100     8.0790    22.6120 ha         1 PP8      -0.290667
     79 H5          23.1490    14.1190    21.7010 h1         1 PP8       0.108000
     80 H61         22.4740    15.0530    23.7360 hc         1 PP8       0.092000
     81 H62         21.0170    14.3770    23.0100 hc         1 PP8       0.092000
     82 H71         26.7070    14.2340    24.2020 h1         1 PP8       0.079667
     83 H72         25.8310    12.9290    25.0540 h1         1 PP8       0.079667
     84 H73         26.6710    12.5810    23.5200 h1         1 PP8       0.079667
     85 HZ          23.2110    14.3990    25.8750 ha         1 PP8       0.131000
     86 HD2         20.2100    12.0650    23.9130 ha         1 PP8       0.131000
     87 HE1         22.9210    13.0580    27.9270 ha         1 PP8       0.129500
     88 HD1         21.2730    11.2040    27.9740 ha         1 PP8       0.120000
     89 HG          19.9190    10.7150    25.9590 ha         1 PP8       0.129500
@<TRIPOS>BOND
     1     1     3 1   
     2     1    10 1   
     3     1    44 1   
     4     2     4 1   
     5     2    10 1   
     6     2    45 1   
     7     2    46 1   
     8     3     5 1   
     9     3    11 1   
    10     3    47 1   
    11     4     6 1   
    12     4     8 1   
    13     4    48 1   
    14     5     7 1   
    15     5     9 1   
    16     5    49 1   
    17     6    50 1   
    18     6    51 1   
    19     6    52 1   
    20     7    53 1   
    21     7    54 1   
    22     7    55 1   
    23     8    56 1   
    24     8    57 1   
    25     8    58 1   
    26     9    59 1   
    27     9    60 1   
    28     9    61 1   
    29    10    12 1   
    30    11    13 1   
    31    11    14 1   
    32    14    15 1   
    33    14    62 1   
    34    15    16 1   
    35    15    20 1   
    36    15    63 1   
    37    16    17 1   
    38    16    64 1   
    39    16    65 1   
    40    17    18 1   
    41    17    19 1   
    42    19    66 1   
    43    19    67 1   
    44    20    21 1   
    45    20    22 1   
    46    22    23 1   
    47    22    68 1   
    48    23    24 1   
    49    23    28 1   
    50    23    69 1   
    51    24    25 1   
    52    24    70 1   
    53    24    71 1   
    54    25    26 1   
    55    25    27 1   
    56    25    72 1   
    57    26    73 1   
    58    26    74 1   
    59    26    75 1   
    60    27    76 1   
    61    27    77 1   
    62    27    78 1   
    63    28    29 1   
    64    28    30 1   
    65    28    31 1   
    66    31    32 1   
    67    32    33 1   
    68    32    41 1   
    69    32    79 1   
    70    33    35 1   
    71    33    80 1   
    72    33    81 1   
    73    34    42 1   
    74    34    82 1   
    75    34    83 1   
    76    34    84 1   
    77    35    36 1   
    78    35    37 1   
    79    36    38 1   
    80    36    85 1   
    81    37    40 1   
    82    37    86 1   
    83    38    39 1   
    84    38    87 1   
    85    39    40 1   
    86    39    88 1   
    87    40    89 1   
    88    41    42 1   
    89    41    43 1   
@<TRIPOS>SUBSTRUCTURE
     1 PP8         1 TEMP              0 ****  ****    0 ROOT
