@<TRIPOS>MOLECULE
PP9
   74    78     1     0     0
SMALL
No Charge or Current Charge


@<TRIPOS>ATOM
      1 CHA         30.9550     0.1070    31.1390 ce         1 PP9      -0.148200
      2 CHB         35.9200     0.5050    30.9870 ce         1 PP9      -0.190200
      3 CHC         35.9260     0.0700    35.7440 ce         1 PP9      -0.201600
      4 CHD         31.0280    -0.1800    35.9550 ce         1 PP9      -0.276600
      5 NA          33.4460     0.3070    31.2680 na         1 PP9      -0.125000
      6 C1A         32.2740     0.2770    30.5360 cc         1 PP9      -0.022800
      7 C2A         32.6570     0.4370    29.2240 cd         1 PP9      -0.040300
      8 C3A         34.0760     0.5620    29.1810 cd         1 PP9      -0.144300
      9 C4A         34.5590     0.4680    30.4620 cc         1 PP9      -0.021800
     10 CMA         34.9030     0.7520    27.9310 c3         1 PP9      -0.017800
     11 CAA         31.7400     0.4730    28.0220 c3         1 PP9      -0.020100
     12 CBA         31.2450     1.9040    27.7030 c3         1 PP9      -0.202400
     13 CGA         30.3650     1.8870    26.4430 c          1 PP9       0.720000
     14 O1A         30.9110     2.0170    25.3580 o          1 PP9      -0.732500
     15 O2A         29.1670     1.6920    26.5790 o          1 PP9      -0.732500
     16 NB          35.5540     0.2670    33.3590 nd         1 PP9      -0.641300
     17 C1B         36.4000     0.3920    32.2750 cd         1 PP9       0.132600
     18 C2B         37.7900     0.3870    32.6270 cd         1 PP9      -0.108200
     19 C3B         37.7930     0.2710    33.9950 cc         1 PP9      -0.192600
     20 C4B         36.4100     0.1950    34.3690 cc         1 PP9       0.407900
     21 CMB         38.9730     0.4590    31.6880 c3         1 PP9      -0.026900
     22 CAB         38.9350     0.2030    34.9100 ce         1 PP9      -0.125000
     23 CBB         40.0820     0.9010    34.7790 c2         1 PP9      -0.347000
     24 NC          33.4960    -0.0370    35.5600 na         1 PP9      -0.533000
     25 C1C         34.6610    -0.0210    36.2780 cd         1 PP9       0.038000
     26 C2C         34.3130    -0.1030    37.6700 cd         1 PP9      -0.087200
     27 C3C         32.9280    -0.1880    37.7310 cc         1 PP9      -0.114000
     28 C4C         32.4210    -0.1280    36.3880 cc         1 PP9       0.117000
     29 CMC         35.2830    -0.0700    38.8300 c3         1 PP9      -0.024900
     30 CAC         32.0720    -0.2870    38.9150 ce         1 PP9      -0.121000
     31 CBC         32.3620    -0.9690    40.0440 c2         1 PP9      -0.349000
     32 ND          31.4100     0.0200    33.5280 nd         1 PP9      -0.691300
     33 C1D         30.5860    -0.1790    34.5570 cc         1 PP9       0.485900
     34 C2D         29.2220    -0.3840    34.1840 cc         1 PP9      -0.252800
     35 C3D         29.1750    -0.2920    32.8220 cd         1 PP9      -0.056200
     36 C4D         30.5390    -0.0470    32.4460 cd         1 PP9       0.181600
     37 CMD         28.0970    -0.6490    35.1570 c3         1 PP9      -0.018900
     38 CAD         27.9620    -0.4250    31.9260 c3         1 PP9      -0.022200
     39 CBD         27.8020    -1.8560    31.3600 c3         1 PP9      -0.201400
     40 CGD         26.5310    -1.9440    30.5000 c          1 PP9       0.721000
     41 O1D         26.6200    -1.6760    29.3120 o          1 PP9      -0.735500
     42 O2D         25.4790    -2.2260    31.0540 o          1 PP9      -0.735500
     43 HHA         30.1560     0.0440    30.4060 ha         1 PP9       0.240000
     44 HHB         36.6840     0.6090    30.2220 ha         1 PP9       0.181000
     45 HHC         36.7220     0.0690    36.4790 ha         1 PP9       0.173000
     46 HHD         30.2680    -0.3030    36.7190 ha         1 PP9       0.184000
     47 HNA         33.4910     0.2170    32.2750 hn         1 PP9       0.398000
     48 HMA1        35.8250     1.3070    28.1390 hc         1 PP9       0.039367
     49 HMA2        35.1840    -0.2150    27.4980 hc         1 PP9       0.039367
     50 HMA3        34.3570     1.3160    27.1670 hc         1 PP9       0.039367
     51 HAA1        32.2570     0.0660    27.1440 hc         1 PP9       0.066700
     52 HAA2        30.8770    -0.1830    28.1820 hc         1 PP9       0.066700
     53 HBA1        30.6630     2.2210    28.5780 hc         1 PP9       0.019700
     54 HBA2        32.1470     2.5040    27.5330 hc         1 PP9       0.019700
     55 HMB1        39.8720     0.0240    32.1390 hc         1 PP9       0.034367
     56 HMB2        38.7870    -0.0980    30.7630 hc         1 PP9       0.034367
     57 HMB3        39.1970     1.4980    31.4190 hc         1 PP9       0.034367
     58 HAB         38.8020    -0.4480    35.7780 ha         1 PP9       0.159000
     59 HBB1        40.2480     1.5900    33.9510 ha         1 PP9       0.154000
     60 HBB2        40.8860     0.8150    35.5110 ha         1 PP9       0.154000
     61 HNC         33.4310     0.0210    34.5450 hn         1 PP9       0.568000
     62 HMC1        34.8120     0.3250    39.7360 hc         1 PP9       0.035033
     63 HMC2        35.6620    -1.0740    39.0530 hc         1 PP9       0.035033
     64 HMC3        36.1420     0.5770    38.6190 hc         1 PP9       0.035033
     65 HAC         31.1040     0.2100    38.8250 ha         1 PP9       0.169000
     66 HBC1        33.2960    -1.5160    40.1670 ha         1 PP9       0.153500
     67 HBC2        31.6590    -1.0120    40.8770 ha         1 PP9       0.153500
     68 HMD1        27.1730    -0.9400    34.6450 hc         1 PP9       0.034700
     69 HMD2        28.3550    -1.4650    35.8420 hc         1 PP9       0.034700
     70 HMD3        27.8810     0.2430    35.7570 hc         1 PP9       0.034700
     71 HAD1        27.0540    -0.1560    32.4790 hc         1 PP9       0.062200
     72 HAD2        28.0150     0.2930    31.0990 hc         1 PP9       0.062200
     73 HBD1        28.6950    -2.0420    30.7510 hc         1 PP9       0.019200
     74 HBD2        27.7200    -2.5140    32.2340 hc         1 PP9       0.019200
@<TRIPOS>BOND
     1     1     6 1   
     2     1    36 2   
     3     1    43 1   
     4     2     9 1   
     5     2    17 2   
     6     2    44 1   
     7     3    20 1   
     8     3    25 2   
     9     3    45 1   
    10     4    28 2   
    11     4    33 1   
    12     4    46 1   
    13     5     6 1   
    14     5     9 1   
    15     5    47 1   
    16     6     7 2   
    17     7     8 1   
    18     7    11 1   
    19     8     9 2   
    20     8    10 1   
    21    10    48 1   
    22    10    49 1   
    23    10    50 1   
    24    11    12 1   
    25    11    51 1   
    26    11    52 1   
    27    12    13 1   
    28    12    53 1   
    29    12    54 1   
    30    13    14 1   
    31    13    15 1   
    32    16    17 1   
    33    16    20 2   
    34    17    18 1   
    35    18    19 2   
    36    18    21 1   
    37    19    20 1   
    38    19    22 1   
    39    21    55 1   
    40    21    56 1   
    41    21    57 1   
    42    22    23 2   
    43    22    58 1   
    44    23    59 1   
    45    23    60 1   
    46    24    25 1   
    47    24    28 1   
    48    24    61 1   
    49    25    26 1   
    50    26    27 2   
    51    26    29 1   
    52    27    28 1   
    53    27    30 1   
    54    29    62 1   
    55    29    63 1   
    56    29    64 1   
    57    30    31 2   
    58    30    65 1   
    59    31    66 1   
    60    31    67 1   
    61    32    33 2   
    62    32    36 1   
    63    33    34 1   
    64    34    35 2   
    65    34    37 1   
    66    35    36 1   
    67    35    38 1   
    68    37    68 1   
    69    37    69 1   
    70    37    70 1   
    71    38    39 1   
    72    38    71 1   
    73    38    72 1   
    74    39    40 1   
    75    39    73 1   
    76    39    74 1   
    77    40    41 1   
    78    40    42 1   
@<TRIPOS>SUBSTRUCTURE
     1 PP9         1 TEMP              0 ****  ****    0 ROOT
