@<TRIPOS>MOLECULE
PP9
   74    78     1     0     0
SMALL
bcc


@<TRIPOS>ATOM
      1 CHA         31.0140     0.0400    31.0880 ce         1 PP9      -0.098200
      2 CHB         35.8370     0.4340    30.9730 ce         1 PP9      -0.140200
      3 CHC         35.9580     0.0930    35.7670 ce         1 PP9      -0.151600
      4 CHD         31.1310    -0.3070    35.8760 ce         1 PP9      -0.226600
      5 NA          33.4370     0.2170    31.3380 na         1 PP9      -0.176100
      6 C1A         32.3010     0.1770    30.5960 cc         1 PP9       0.027900
      7 C2A         32.6850     0.3000    29.2210 cd         1 PP9      -0.040300
      8 C3A         34.0510     0.4160    29.1840 cd         1 PP9      -0.144300
      9 C4A         34.5270     0.3600    30.5360 cc         1 PP9       0.028900
     10 CMA         34.8890     0.5800    27.9630 c3         1 PP9      -0.017800
     11 CAA         31.7430     0.3520    28.0660 c3         1 PP9      -0.020100
     12 CBA         31.2810     1.7780    27.7750 c3         1 PP9      -0.202400
     13 CGA         30.2840     1.9210    26.6090 c          1 PP9       0.930600
     14 O1A         29.9630     3.0900    26.3120 o          1 PP9      -0.837800
     15 O2A         29.8750     0.8770    26.0640 o          1 PP9      -0.837800
     16 NB          35.5100     0.2320    33.3790 nd         1 PP9      -0.641300
     17 C1B         36.2930     0.3790    32.2900 cd         1 PP9       0.132600
     18 C2B         37.6970     0.4760    32.6510 cd         1 PP9      -0.108200
     19 C3B         37.7320     0.3880    34.0130 cc         1 PP9      -0.192600
     20 C4B         36.3440     0.2250    34.4350 cc         1 PP9       0.407900
     21 CMB         38.8350     0.6130    31.7020 c3         1 PP9      -0.026900
     22 CAB         38.8770     0.4170    34.9090 ce         1 PP9      -0.075000
     23 CBB         40.0390     1.0340    34.6840 c2         1 PP9      -0.247000
     24 NC          33.5330    -0.0930    35.5200 na         1 PP9      -0.477800
     25 C1C         34.6730    -0.0560    36.2630 cd         1 PP9       0.038000
     26 C2C         34.2920    -0.1910    37.6360 cd         1 PP9      -0.087200
     27 C3C         32.9180    -0.3090    37.6700 cc         1 PP9      -0.114000
     28 C4C         32.4450    -0.2360    36.3150 cc         1 PP9       0.117000
     29 CMC         35.2370    -0.1720    38.7850 c3         1 PP9      -0.024900
     30 CAC         32.0360    -0.4520    38.8170 ce         1 PP9      -0.071000
     31 CBC         32.3600    -0.9590    40.0080 c2         1 PP9      -0.249000
     32 ND          31.4710    -0.0990    33.4730 nd         1 PP9      -0.691300
     33 C1D         30.6850    -0.2410    34.5610 cc         1 PP9       0.485900
     34 C2D         29.2750    -0.3230    34.1930 cc         1 PP9      -0.252800
     35 C3D         29.2380    -0.2240    32.8410 cd         1 PP9      -0.056200
     36 C4D         30.6300    -0.0880    32.4190 cd         1 PP9       0.181600
     37 CMD         28.1450    -0.4950    35.1470 c3         1 PP9      -0.018900
     38 CAD         28.0580    -0.2900    31.9310 c3         1 PP9      -0.022200
     39 CBD         27.8220    -1.7000    31.3920 c3         1 PP9      -0.201400
     40 CGD         26.6490    -1.8390    30.4030 c          1 PP9       0.931600
     41 O1D         26.4950    -2.9720    29.9010 o          1 PP9      -0.840800
     42 O2D         25.9490    -0.8310    30.1860 o          1 PP9      -0.840800
     43 HHA         30.2290     0.0340    30.3440 ha         1 PP9       0.190000
     44 HHB         36.5860     0.5440    30.2000 ha         1 PP9       0.131000
     45 HHC         36.7440     0.1070    36.5100 ha         1 PP9       0.123000
     46 HHD         30.3760    -0.4230    36.6420 ha         1 PP9       0.134000
     47 HNA         33.4700     0.1520    32.3460 hn         1 PP9       0.347700
     48 HMA1        35.9550     0.5670    28.1830 hc         1 PP9       0.039367
     49 HMA2        34.6970    -0.2170    27.2440 hc         1 PP9       0.039367
     50 HMA3        34.6730     1.5250    27.4620 hc         1 PP9       0.039367
     51 HAA1        32.2320    -0.0640    27.1820 hc         1 PP9       0.066700
     52 HAA2        30.8780    -0.2870    28.2550 hc         1 PP9       0.066700
     53 HBA1        30.8230     2.2050    28.6740 hc         1 PP9       0.019700
     54 HBA2        32.1500     2.4130    27.5700 hc         1 PP9       0.019700
     55 HMB1        39.7210     0.0980    32.0750 hc         1 PP9       0.034367
     56 HMB2        38.6020     0.1970    30.7220 hc         1 PP9       0.034367
     57 HMB3        39.1150     1.6580    31.5490 hc         1 PP9       0.034367
     58 HAB         38.7650    -0.1110    35.8520 ha         1 PP9       0.109000
     59 HBB1        40.2320     1.6170    33.7930 ha         1 PP9       0.104000
     60 HBB2        40.8390     0.9840    35.4100 ha         1 PP9       0.104000
     61 HNC         33.4990    -0.0280    34.5120 hn         1 PP9       0.512800
     62 HMC1        34.8190     0.3820    39.6260 hc         1 PP9       0.035033
     63 HMC2        35.4580    -1.1800    39.1420 hc         1 PP9       0.035033
     64 HMC3        36.1840     0.2950    38.5240 hc         1 PP9       0.035033
     65 HAC         31.0140    -0.1150    38.6750 ha         1 PP9       0.119000
     66 HBC1        33.3390    -1.3550    40.2370 ha         1 PP9       0.103500
     67 HBC2        31.6230    -1.0100    40.7980 ha         1 PP9       0.103500
     68 HMD1        27.1850    -0.4670    34.6340 hc         1 PP9       0.034700
     69 HMD2        28.2040    -1.4510    35.6720 hc         1 PP9       0.034700
     70 HMD3        28.1340     0.2860    35.9090 hc         1 PP9       0.034700
     71 HAD1        27.1670     0.0510    32.4610 hc         1 PP9       0.062200
     72 HAD2        28.1850     0.4060    31.0980 hc         1 PP9       0.062200
     73 HBD1        28.7310    -2.0730    30.9090 hc         1 PP9       0.019200
     74 HBD2        27.6470    -2.3850    32.2300 hc         1 PP9       0.019200
@<TRIPOS>BOND
     1     1     6 1   
     2     1    36 2   
     3     1    43 1   
     4     2     9 1   
     5     2    17 2   
     6     2    44 1   
     7     3    20 1   
     8     3    25 2   
     9     3    45 1   
    10     4    28 2   
    11     4    33 1   
    12     4    46 1   
    13     5     6 1   
    14     5     9 1   
    15     5    47 1   
    16     6     7 2   
    17     7     8 1   
    18     7    11 1   
    19     8     9 2   
    20     8    10 1   
    21    10    48 1   
    22    10    49 1   
    23    10    50 1   
    24    11    12 1   
    25    11    51 1   
    26    11    52 1   
    27    12    13 1   
    28    12    53 1   
    29    12    54 1   
    30    13    14 1   
    31    13    15 1   
    32    16    17 1   
    33    16    20 2   
    34    17    18 1   
    35    18    19 2   
    36    18    21 1   
    37    19    20 1   
    38    19    22 1   
    39    21    55 1   
    40    21    56 1   
    41    21    57 1   
    42    22    23 2   
    43    22    58 1   
    44    23    59 1   
    45    23    60 1   
    46    24    25 1   
    47    24    28 1   
    48    24    61 1   
    49    25    26 1   
    50    26    27 2   
    51    26    29 1   
    52    27    28 1   
    53    27    30 1   
    54    29    62 1   
    55    29    63 1   
    56    29    64 1   
    57    30    31 2   
    58    30    65 1   
    59    31    66 1   
    60    31    67 1   
    61    32    33 2   
    62    32    36 1   
    63    33    34 1   
    64    34    35 2   
    65    34    37 1   
    66    35    36 1   
    67    35    38 1   
    68    37    68 1   
    69    37    69 1   
    70    37    70 1   
    71    38    39 1   
    72    38    71 1   
    73    38    72 1   
    74    39    40 1   
    75    39    73 1   
    76    39    74 1   
    77    40    41 1   
    78    40    42 1   
@<TRIPOS>SUBSTRUCTURE
     1 PP9         1 TEMP              0 ****  ****    0 ROOT
