@<TRIPOS>MOLECULE
PPF
    7     6     1     0     0
SMALL
No Charge or Current Charge


@<TRIPOS>ATOM
      1 C1          -0.1480     0.0230     1.3510 c          1 PPF       0.578000
      2 O1          -1.3140     0.2400    -1.3570 o          1 PPF      -0.971500
      3 O2           1.0070     0.9540    -1.2060 o          1 PPF      -0.971500
      4 O3           0.4640    -1.4420    -1.1440 o          1 PPF      -0.971500
      5 O4           0.8220     0.3560     2.0400 o          1 PPF      -0.869500
      6 O5          -1.2120    -0.2700     1.9070 o          1 PPF      -0.869500
      7 P1           0.0160    -0.0700    -0.7390 p5         1 PPF       1.076500
@<TRIPOS>BOND
     1     1     5 1   
     2     1     6 1   
     3     1     7 1   
     4     2     7 1   
     5     3     7 1   
     6     4     7 1   
@<TRIPOS>SUBSTRUCTURE
     1 PPF         1 TEMP              0 ****  ****    0 ROOT
