@<TRIPOS>MOLECULE
PPF
    7     6     1     0     0
SMALL
abcg2


@<TRIPOS>ATOM
      1 C1          -0.1450     0.0160     1.2020 c          1 PPF       0.578000
      2 O1          -1.4190     0.0890    -1.2470 o          1 PPF      -0.971500
      3 O2           0.9220     1.1170    -1.0590 o          1 PPF      -0.971500
      4 O3           0.6250    -1.4330    -0.9570 o          1 PPF      -0.971500
      5 O4           0.9330     0.0300     1.8490 o          1 PPF      -0.869500
      6 O5          -1.2810     0.0260     1.7360 o          1 PPF      -0.869500
      7 P1          -0.0000    -0.0540    -0.6720 p5         1 PPF       1.076500
@<TRIPOS>BOND
     1     1     5 1   
     2     1     6 1   
     3     1     7 1   
     4     2     7 1   
     5     3     7 1   
     6     4     7 1   
@<TRIPOS>SUBSTRUCTURE
     1 PPF         1 TEMP              0 ****  ****    0 ROOT
