@<TRIPOS>MOLECULE
PPH
   23    23     1     0     0
SMALL
abcg2


@<TRIPOS>ATOM
      1 O1           1.9160     0.8970     1.3870 o          1 PPH      -0.924833
      2 P1           1.8140     0.6560    -0.1300 p5         1 PPH       1.266500
      3 O2           3.1890     0.6140    -0.8290 o          1 PPH      -0.924833
      4 C1           1.2010    -1.1050    -0.3010 c3         1 PPH      -0.164500
      5 N1           2.2710    -2.0780    -0.0150 n8         1 PPH      -1.011200
      6 C2           0.0140    -1.4610     0.5950 c3         1 PPH       0.001900
      7 C3          -1.2600    -0.7140     0.3210 ca         1 PPH      -0.011300
      8 C4          -2.2250    -1.2450    -0.5320 ca         1 PPH      -0.084500
      9 C5          -3.4200    -0.5760    -0.7740 ca         1 PPH      -0.133500
     10 C6          -3.6720     0.6380    -0.1500 ca         1 PPH      -0.153000
     11 C7          -2.7160     1.1780     0.7040 ca         1 PPH      -0.133500
     12 C8          -1.5180     0.5150     0.9240 ca         1 PPH      -0.084500
     13 O3           0.8070     1.5590    -0.8500 o          1 PPH      -0.924833
     14 H2           0.8930    -1.2650    -1.3440 h1         1 PPH       0.029700
     15 H3           3.0990    -1.7280    -0.4880 hn         1 PPH       0.376000
     16 H4           2.5040    -1.9810     0.9690 hn         1 PPH       0.376000
     17 H5          -0.1800    -2.5350     0.4970 hc         1 PPH       0.014700
     18 H6           0.3130    -1.2900     1.6340 hc         1 PPH       0.014700
     19 H7          -2.0430    -2.2020    -1.0090 ha         1 PPH       0.126000
     20 H8          -4.1550    -1.0090    -1.4410 ha         1 PPH       0.075000
     21 H9          -4.6070     1.1570    -0.3230 ha         1 PPH       0.066000
     22 H10         -2.9050     2.1260     1.1920 ha         1 PPH       0.075000
     23 H11         -0.7630     0.9460     1.5670 ha         1 PPH       0.126000
@<TRIPOS>BOND
     1     1     2 1   
     2     2     3 1   
     3     2     4 1   
     4     2    13 1   
     5     4     5 1   
     6     4     6 1   
     7     4    14 1   
     8     5    15 1   
     9     5    16 1   
    10     6     7 1   
    11     6    17 1   
    12     6    18 1   
    13     7     8 ar  
    14     7    12 ar  
    15     8     9 ar  
    16     8    19 1   
    17     9    10 ar  
    18     9    20 1   
    19    10    11 ar  
    20    10    21 1   
    21    11    12 ar  
    22    11    22 1   
    23    12    23 1   
@<TRIPOS>SUBSTRUCTURE
     1 PPH         1 TEMP              0 ****  ****    0 ROOT
