@<TRIPOS>MOLECULE
PPI
   10     9     1     0     0
SMALL
bcc


@<TRIPOS>ATOM
      1 C1          -0.0480    -0.0180    -0.5830 c          1 PPI       0.925600
      2 C2           0.7740     0.0240     0.7180 c3         1 PPI      -0.209400
      3 C3          -0.0350     0.0170     2.0040 c3         1 PPI      -0.054100
      4 O1          -1.2900    -0.0550    -0.4860 o          1 PPI      -0.851800
      5 O2           0.6090    -0.0120    -1.6460 o          1 PPI      -0.851800
      6 H21          1.4150     0.9110     0.6860 hc         1 PPI       0.012700
      7 H22          1.4670    -0.8240     0.7090 hc         1 PPI       0.012700
      8 H31          0.6150     0.0420     2.8800 hc         1 PPI       0.005700
      9 H32         -0.7000     0.8790     2.0640 hc         1 PPI       0.005700
     10 H33         -0.6550    -0.8770     2.0810 hc         1 PPI       0.005700
@<TRIPOS>BOND
     1     1     2 1   
     2     1     4 1   
     3     1     5 1   
     4     2     3 1   
     5     2     6 1   
     6     2     7 1   
     7     3     8 1   
     8     3     9 1   
     9     3    10 1   
@<TRIPOS>SUBSTRUCTURE
     1 PPI         1 TEMP              0 ****  ****    0 ROOT
