@<TRIPOS>MOLECULE
PPI
   10     9     1     0     0
SMALL
No Charge or Current Charge


@<TRIPOS>ATOM
      1 C1          -0.0950    -0.0780    -0.5480 c          1 PPI       0.715000
      2 C2           0.8030    -0.2220     0.6940 c3         1 PPI      -0.209400
      3 C3           0.0420     0.2290     1.9600 c3         1 PPI      -0.054100
      4 O1          -0.8070    -1.0210    -0.8590 o          1 PPI      -0.746500
      5 O2          -0.0880     0.9880    -1.1440 o          1 PPI      -0.746500
      6 H21          1.6750     0.4400     0.6230 hc         1 PPI       0.012700
      7 H22          1.0610    -1.2750     0.8670 hc         1 PPI       0.012700
      8 H31          0.6800     0.1270     2.8460 hc         1 PPI       0.005700
      9 H32         -0.2630     1.2790     1.8760 hc         1 PPI       0.005700
     10 H33         -0.8560    -0.3810     2.1120 hc         1 PPI       0.005700
@<TRIPOS>BOND
     1     1     2 1   
     2     1     4 1   
     3     1     5 1   
     4     2     3 1   
     5     2     6 1   
     6     2     7 1   
     7     3     8 1   
     8     3     9 1   
     9     3    10 1   
@<TRIPOS>SUBSTRUCTURE
     1 PPI         1 TEMP              0 ****  ****    0 ROOT
