@<TRIPOS>MOLECULE
PPL
   33    33     1     0     0
SMALL
abcg2


@<TRIPOS>ATOM
      1 N1          -1.2110    -0.1110    -2.0270 n7         1 PPL      -0.841400
      2 C2          -0.1170    -0.3100    -1.1030 c6         1 PPL       0.095500
      3 C3           1.1260     0.4270    -1.6120 c6         1 PPL      -0.071400
      4 C4           1.4870    -0.0370    -3.0180 c6         1 PPL      -0.074400
      5 C5           0.2840     0.0800    -3.9470 c6         1 PPL      -0.077400
      6 C6          -0.9140    -0.6400    -3.3490 c6         1 PPL       0.162800
      7 C           -0.4830     0.2270     0.2790 c          1 PPL       0.597100
      8 O           -1.2580     1.1600     0.4280 o          1 PPL      -0.582100
      9 N            0.1590    -0.3950     1.2810 ns         1 PPL      -0.515900
     10 C1           0.1080    -0.0600     2.7080 c3         1 PPL       0.140400
     11 C7           1.0470    -1.0400     3.4090 c3         1 PPL      -0.103767
     12 C8          -1.3080    -0.2450     3.2570 c3         1 PPL      -0.103767
     13 C9           0.5980     1.3670     2.9550 c3         1 PPL      -0.103767
     14 HN1         -2.0470    -0.5560    -1.6710 hn         1 PPL       0.420000
     15 H2           0.1480    -1.3790    -1.0040 h1         1 PPL       0.014700
     16 H31          0.9200     1.5020    -1.6150 hc         1 PPL       0.054200
     17 H32          1.9610     0.2590    -0.9270 hc         1 PPL       0.054200
     18 H41          2.3300     0.5430    -3.4010 hc         1 PPL       0.038200
     19 H42          1.8170    -1.0800    -2.9810 hc         1 PPL       0.038200
     20 H51          0.0330     1.1340    -4.0980 hc         1 PPL       0.049200
     21 H52          0.5130    -0.3400    -4.9290 hc         1 PPL       0.049200
     22 H61         -1.7940    -0.5010    -3.9810 h1         1 PPL       0.028700
     23 H62         -0.7040    -1.7230    -3.3310 h1         1 PPL       0.028700
     24 HN           0.7440    -1.1760     1.0300 hn         1 PPL       0.306500
     25 H2'1         1.0400    -0.8620     4.4840 hc         1 PPL       0.044033
     26 H2'2         0.7400    -2.0740     3.2390 hc         1 PPL       0.044033
     27 H2'3         2.0750    -0.9280     3.0580 hc         1 PPL       0.044033
     28 H3'1        -1.6590    -1.2640     3.0860 hc         1 PPL       0.044033
     29 H3'2        -1.3180    -0.0620     4.3330 hc         1 PPL       0.044033
     30 H3'3        -2.0140     0.4430     2.7940 hc         1 PPL       0.044033
     31 H4'1         1.6080     1.5040     2.5670 hc         1 PPL       0.044033
     32 H4'2        -0.0520     2.1050     2.4880 hc         1 PPL       0.044033
     33 H4'3         0.6210     1.5690     4.0270 hc         1 PPL       0.044033
@<TRIPOS>BOND
     1     1     2 1   
     2     1     6 1   
     3     1    14 1   
     4     2     3 1   
     5     2     7 1   
     6     2    15 1   
     7     3     4 1   
     8     3    16 1   
     9     3    17 1   
    10     4     5 1   
    11     4    18 1   
    12     4    19 1   
    13     5     6 1   
    14     5    20 1   
    15     5    21 1   
    16     6    22 1   
    17     6    23 1   
    18     7     8 2   
    19     7     9 1   
    20     9    10 1   
    21     9    24 1   
    22    10    11 1   
    23    10    12 1   
    24    10    13 1   
    25    11    25 1   
    26    11    26 1   
    27    11    27 1   
    28    12    28 1   
    29    12    29 1   
    30    12    30 1   
    31    13    31 1   
    32    13    32 1   
    33    13    33 1   
@<TRIPOS>SUBSTRUCTURE
     1 PPL         1 TEMP              0 ****  ****    0 ROOT
