@<TRIPOS>MOLECULE
PPL
   33    33     1     0     0
SMALL
No Charge or Current Charge


@<TRIPOS>ATOM
      1 N1          -0.9110     0.7110    -2.1030 n7         1 PPL      -0.841400
      2 C2          -0.5080    -0.3850    -1.1540 c6         1 PPL       0.095500
      3 C3           0.9710    -0.8060    -1.4260 c6         1 PPL      -0.071400
      4 C4           1.1790    -1.2010    -2.9090 c6         1 PPL      -0.074400
      5 C5           0.7020    -0.0660    -3.8470 c6         1 PPL      -0.077400
      6 C6          -0.7580     0.3370    -3.5280 c6         1 PPL       0.162800
      7 C           -0.8290    -0.0310     0.3520 c          1 PPL       0.597100
      8 O           -1.9610     0.2920     0.6930 o          1 PPL      -0.582100
      9 N            0.2280    -0.1010     1.2510 ns         1 PPL      -0.515900
     10 C1           0.1980     0.1740     2.6940 c3         1 PPL       0.140400
     11 C7           1.6330    -0.0530     3.2240 c3         1 PPL      -0.103767
     12 C8          -0.7670    -0.8010     3.4150 c3         1 PPL      -0.103767
     13 C9          -0.2120     1.6440     2.9610 c3         1 PPL      -0.103767
     14 HN1         -1.8960     0.9500    -1.9260 hn         1 PPL       0.420000
     15 H2          -1.1370    -1.2610    -1.3720 h1         1 PPL       0.014700
     16 H31          1.6490     0.0200    -1.1710 hc         1 PPL       0.054200
     17 H32          1.2460    -1.6570    -0.7880 hc         1 PPL       0.054200
     18 H41          2.2390    -1.4230    -3.0960 hc         1 PPL       0.038200
     19 H42          0.6210    -2.1220    -3.1300 hc         1 PPL       0.038200
     20 H51          1.3570     0.8090    -3.7360 hc         1 PPL       0.049200
     21 H52          0.7790    -0.3860    -4.8950 hc         1 PPL       0.049200
     22 H61         -1.0530     1.1850    -4.1630 h1         1 PPL       0.028700
     23 H62         -1.4300    -0.5030    -3.7600 h1         1 PPL       0.028700
     24 HN           1.1200    -0.3650     0.8540 hn         1 PPL       0.306500
     25 H2'1         1.6860     0.1350     4.3040 hc         1 PPL       0.044033
     26 H2'2         1.9580    -1.0860     3.0460 hc         1 PPL       0.044033
     27 H2'3         2.3450     0.6180     2.7290 hc         1 PPL       0.044033
     28 H3'1        -0.5090    -1.8430     3.1900 hc         1 PPL       0.044033
     29 H3'2        -0.7120    -0.6660     4.5020 hc         1 PPL       0.044033
     30 H3'3        -1.8080    -0.6360     3.1160 hc         1 PPL       0.044033
     31 H4'1         0.4400     2.3360     2.4140 hc         1 PPL       0.044033
     32 H4'2        -1.2460     1.8380     2.6560 hc         1 PPL       0.044033
     33 H4'3        -0.1340     1.8800     4.0290 hc         1 PPL       0.044033
@<TRIPOS>BOND
     1     1     2 1   
     2     1     6 1   
     3     1    14 1   
     4     2     3 1   
     5     2     7 1   
     6     2    15 1   
     7     3     4 1   
     8     3    16 1   
     9     3    17 1   
    10     4     5 1   
    11     4    18 1   
    12     4    19 1   
    13     5     6 1   
    14     5    20 1   
    15     5    21 1   
    16     6    22 1   
    17     6    23 1   
    18     7     8 2   
    19     7     9 1   
    20     9    10 1   
    21     9    24 1   
    22    10    11 1   
    23    10    12 1   
    24    10    13 1   
    25    11    25 1   
    26    11    26 1   
    27    11    27 1   
    28    12    28 1   
    29    12    29 1   
    30    12    30 1   
    31    13    31 1   
    32    13    32 1   
    33    13    33 1   
@<TRIPOS>SUBSTRUCTURE
     1 PPL         1 TEMP              0 ****  ****    0 ROOT
