@<TRIPOS>MOLECULE
PPM
    8     7     1     0     0
SMALL
abcg2


@<TRIPOS>ATOM
      1 CM           1.7360     0.0210    -0.1920 c3         1 PPM      -0.406100
      2 P           -0.1120     0.0150     0.0290 p5         1 PPM       1.316500
      3 O1P         -0.3320    -0.0190     1.5490 o          1 PPM      -0.949500
      4 O2P         -0.5950     1.3150    -0.6320 o          1 PPM      -0.949500
      5 O3P         -0.5930    -1.2550    -0.6890 o          1 PPM      -0.949500
      6 HM1          2.2010     0.8930     0.2760 hc         1 PPM      -0.020300
      7 HM2          2.2020    -0.8640     0.2500 hc         1 PPM      -0.020300
      8 HM3          2.0180     0.0370    -1.2480 hc         1 PPM      -0.020300
@<TRIPOS>BOND
     1     1     2 1   
     2     1     6 1   
     3     1     7 1   
     4     1     8 1   
     5     2     3 1   
     6     2     4 1   
     7     2     5 1   
@<TRIPOS>SUBSTRUCTURE
     1 PPM         1 TEMP              0 ****  ****    0 ROOT
