@<TRIPOS>MOLECULE
PPM
    8     7     1     0     0
SMALL
No Charge or Current Charge


@<TRIPOS>ATOM
      1 CM           1.7630     0.0210    -0.1950 c3         1 PPM      -0.406100
      2 P           -0.0710     0.0150     0.0240 p5         1 PPM       1.316500
      3 O1P         -0.3690    -0.0140     1.4840 o          1 PPM      -0.949500
      4 O2P         -0.6220     1.2520    -0.5980 o          1 PPM      -0.949500
      5 O3P         -0.6200    -1.1980    -0.6470 o          1 PPM      -0.949500
      6 HM1          2.2080     0.9000     0.2850 hc         1 PPM      -0.020300
      7 HM2          2.2100    -0.8760     0.2500 hc         1 PPM      -0.020300
      8 HM3          2.0260     0.0420    -1.2600 hc         1 PPM      -0.020300
@<TRIPOS>BOND
     1     1     2 1   
     2     1     6 1   
     3     1     7 1   
     4     1     8 1   
     5     2     3 1   
     6     2     4 1   
     7     2     5 1   
@<TRIPOS>SUBSTRUCTURE
     1 PPM         1 TEMP              0 ****  ****    0 ROOT
