@<TRIPOS>MOLECULE
PPN
   24    24     1     0     0
SMALL
No Charge or Current Charge


@<TRIPOS>ATOM
      1 N          -17.8590    -0.8290    -0.3750 n8         1 PPN      -0.867800
      2 CA         -18.7810    -1.9860    -0.6860 c3         1 PPN       0.022500
      3 C          -20.0380    -1.6800    -1.6120 c          1 PPN       0.934600
      4 O          -20.8860    -0.8830    -1.2170 o          1 PPN      -0.829300
      5 OXT        -20.0750    -2.1710    -2.7370 o          1 PPN      -0.829300
      6 CB         -19.2050    -2.6740     0.6390 c3         1 PPN      -0.072100
      7 CG         -19.8900    -4.0150     0.4090 ca         1 PPN       0.025700
      8 CD1        -19.1320    -5.1480     0.0630 ca         1 PPN      -0.131500
      9 CD2        -21.2850    -4.1360     0.5410 ca         1 PPN      -0.131500
     10 CE1        -19.7570    -6.3890    -0.1500 ca         1 PPN      -0.065500
     11 CE2        -21.9190    -5.3740     0.3300 ca         1 PPN      -0.065500
     12 CZ         -21.1590    -6.5140    -0.0190 ca         1 PPN      -0.202200
     13 N1         -21.8280    -7.8340    -0.2440 no         1 PPN       0.321200
     14 O1         -23.0540    -7.8930    -0.1170 o          1 PPN      -0.237500
     15 O2         -21.1230    -8.8000    -0.5460 o          1 PPN      -0.237500
     16 H          -17.1580    -1.1250     0.3110 hn         1 PPN       0.320800
     17 H2         -18.3950    -0.0950     0.1010 hn         1 PPN       0.320800
     18 HA         -18.1730    -2.7150    -1.2390 h1         1 PPN       0.050700
     19 HB2        -18.3180    -2.8310     1.2650 hc         1 PPN       0.035200
     20 HB3        -19.8590    -2.0000     1.2060 hc         1 PPN       0.035200
     21 HD1        -18.0520    -5.0670    -0.0410 ha         1 PPN       0.148500
     22 HD2        -21.8840    -3.2680     0.8070 ha         1 PPN       0.148500
     23 HE1        -19.1420    -7.2480    -0.4170 ha         1 PPN       0.153500
     24 HE2        -23.0000    -5.4350     0.4390 ha         1 PPN       0.153500
@<TRIPOS>BOND
     1     1     2 1   
     2     1    16 1   
     3     1    17 1   
     4     2     3 1   
     5     2     6 1   
     6     2    18 1   
     7     3     4 1   
     8     3     5 1   
     9     6     7 1   
    10     6    19 1   
    11     6    20 1   
    12     7     8 ar  
    13     7     9 ar  
    14     8    10 ar  
    15     8    21 1   
    16     9    11 ar  
    17     9    22 1   
    18    10    12 ar  
    19    10    23 1   
    20    11    12 ar  
    21    11    24 1   
    22    12    13 1   
    23    13    14 1   
    24    13    15 1   
@<TRIPOS>SUBSTRUCTURE
     1 PPN         1 TEMP              0 ****  ****    0 ROOT
