@<TRIPOS>MOLECULE
PPN
   24    24     1     0     0
SMALL
bcc


@<TRIPOS>ATOM
      1 N          -18.0200    -0.8040    -0.4610 n8         1 PPN      -0.867800
      2 CA         -18.7730    -2.0270    -0.6870 c3         1 PPN       0.022500
      3 C          -20.0650    -1.6940    -1.4690 c          1 PPN       0.934600
      4 O          -20.7610    -0.7760    -0.9860 o          1 PPN      -0.829300
      5 OXT        -20.3100    -2.3680    -2.4860 o          1 PPN      -0.829300
      6 CB         -19.1310    -2.7510     0.6330 c3         1 PPN      -0.072100
      7 CG         -19.8370    -4.0520     0.4190 ca         1 PPN       0.025700
      8 CD1        -19.1140    -5.2160     0.1540 ca         1 PPN      -0.131500
      9 CD2        -21.2300    -4.1300     0.4430 ca         1 PPN      -0.131500
     10 CE1        -19.7490    -6.4220    -0.0770 ca         1 PPN      -0.065500
     11 CE2        -21.8870    -5.3250     0.2170 ca         1 PPN      -0.065500
     12 CZ         -21.1370    -6.4640    -0.0420 ca         1 PPN      -0.202200
     13 N1         -21.8160    -7.7250    -0.2750 no         1 PPN       0.321200
     14 O1         -23.0250    -7.7370    -0.2340 o          1 PPN      -0.237500
     15 O2         -21.1420    -8.7040    -0.4990 o          1 PPN      -0.237500
     16 H          -17.2590    -0.9780     0.1850 hn         1 PPN       0.320800
     17 H2         -18.6320    -0.1340    -0.0090 hn         1 PPN       0.320800
     18 HA         -18.1560    -2.7050    -1.2840 h1         1 PPN       0.050700
     19 HB2        -18.2050    -2.9290     1.1870 hc         1 PPN       0.035200
     20 HB3        -19.7480    -2.0830     1.2380 hc         1 PPN       0.035200
     21 HD1        -18.0320    -5.1790     0.1350 ha         1 PPN       0.148500
     22 HD2        -21.8100    -3.2380     0.6400 ha         1 PPN       0.148500
     23 HE1        -19.1660    -7.3090    -0.2770 ha         1 PPN       0.153500
     24 HE2        -22.9660    -5.3620     0.2460 ha         1 PPN       0.153500
@<TRIPOS>BOND
     1     1     2 1   
     2     1    16 1   
     3     1    17 1   
     4     2     3 1   
     5     2     6 1   
     6     2    18 1   
     7     3     4 1   
     8     3     5 1   
     9     6     7 1   
    10     6    19 1   
    11     6    20 1   
    12     7     8 ar  
    13     7     9 ar  
    14     8    10 ar  
    15     8    21 1   
    16     9    11 ar  
    17     9    22 1   
    18    10    12 ar  
    19    10    23 1   
    20    11    12 ar  
    21    11    24 1   
    22    12    13 1   
    23    13    14 1   
    24    13    15 1   
@<TRIPOS>SUBSTRUCTURE
     1 PPN         1 TEMP              0 ****  ****    0 ROOT
