@<TRIPOS>MOLECULE
PPO
   14    15     1     0     0
SMALL
No Charge or Current Charge


@<TRIPOS>ATOM
      1 O6           1.8860    -0.2300     1.8080 oh         1 PPO      -0.622300
      2 C6           0.6440    -0.1270     1.2640 ca         1 PPO       0.426300
      3 C5           0.4590    -0.1190    -0.1250 ca         1 PPO      -0.179600
      4 N7           1.3960    -0.2040    -1.1670 ne         1 PPO      -0.127400
      5 N8           0.7940    -0.1590    -2.3030 n2         1 PPO      -0.164200
      6 C9          -0.6920    -0.0320    -2.1020 c5         1 PPO      -0.054500
      7 C4          -0.8120    -0.0140    -0.6180 ca         1 PPO       0.104300
      8 N3          -1.9000     0.0830     0.1680 nb         1 PPO      -0.163000
      9 C2          -1.6390     0.0680     1.5000 ca         1 PPO       0.176900
     10 N1          -0.4200    -0.0330     2.0910 nb         1 PPO      -0.212000
     11 HO6          2.5060    -0.2870     1.0500 ho         1 PPO       0.503000
     12 HC91        -1.2240    -0.8870    -2.5400 h1         1 PPO       0.125200
     13 HC92        -1.0720     0.8950    -2.5490 h1         1 PPO       0.125200
     14 HC2         -2.4980     0.1440     2.1640 h5         1 PPO       0.062100
@<TRIPOS>BOND
     1     1     2 1   
     2     1    11 1   
     3     2     3 ar  
     4     2    10 ar  
     5     3     4 1   
     6     3     7 ar  
     7     4     5 2   
     8     5     6 1   
     9     6     7 1   
    10     6    12 1   
    11     6    13 1   
    12     7     8 ar  
    13     8     9 ar  
    14     9    10 ar  
    15     9    14 1   
@<TRIPOS>SUBSTRUCTURE
     1 PPO         1 TEMP              0 ****  ****    0 ROOT
