@<TRIPOS>MOLECULE
PPO
   14    15     1     0     0
SMALL
bcc


@<TRIPOS>ATOM
      1 O6           1.8630    -0.0680     1.8000 oh         1 PPO      -0.583300
      2 C6           0.6700    -0.0720     1.2240 ca         1 PPO       0.754600
      3 C5           0.4600    -0.0740    -0.1520 ca         1 PPO      -0.310200
      4 N7           1.3560    -0.1220    -1.2300 ne         1 PPO      -0.127400
      5 N8           0.7280    -0.0980    -2.3050 n2         1 PPO      -0.164200
      6 C9          -0.7140    -0.0320    -2.0830 c5         1 PPO      -0.054500
      7 C4          -0.8400    -0.0180    -0.6080 ca         1 PPO       0.432600
      8 N3          -1.8990     0.0460     0.1790 nb         1 PPO      -0.689000
      9 C2          -1.5930     0.0490     1.4720 ca         1 PPO       0.702900
     10 N1          -0.3840    -0.0110     2.0190 nb         1 PPO      -0.738000
     11 HO6          2.5090    -0.5760     1.2910 ho         1 PPO       0.464000
     12 HC91        -1.1910    -0.8920    -2.5620 h1         1 PPO       0.125200
     13 HC92        -1.1130     0.8640    -2.5690 h1         1 PPO       0.125200
     14 HC2         -2.4240     0.1010     2.1650 h5         1 PPO       0.062100
@<TRIPOS>BOND
     1     1     2 1   
     2     1    11 1   
     3     2     3 ar  
     4     2    10 ar  
     5     3     4 1   
     6     3     7 ar  
     7     4     5 2   
     8     5     6 1   
     9     6     7 1   
    10     6    12 1   
    11     6    13 1   
    12     7     8 ar  
    13     8     9 ar  
    14     9    10 ar  
    15     9    14 1   
@<TRIPOS>SUBSTRUCTURE
     1 PPO         1 TEMP              0 ****  ****    0 ROOT
