@<TRIPOS>MOLECULE
PPP
   23    23     1     0     0
SMALL
No Charge or Current Charge


@<TRIPOS>ATOM
      1 C1           0.4050     0.5290     3.0650 c3         1 PPP       0.128600
      2 C2           0.1030    -0.0100     1.6400 c3         1 PPP       0.169300
      3 C3           0.2660     1.0770     0.5500 c3         1 PPP      -0.068100
      4 C7           0.1520     0.5280    -0.8700 ca         1 PPP      -0.072300
      5 C8          -1.0210     0.7320    -1.6230 ca         1 PPP      -0.101000
      6 C9          -1.1200     0.2280    -2.9320 ca         1 PPP      -0.107000
      7 C4          -0.0460    -0.4820    -3.4960 ca         1 PPP      -0.108000
      8 C5           1.1260    -0.6880    -2.7500 ca         1 PPP      -0.107000
      9 C6           1.2250    -0.1840    -1.4410 ca         1 PPP      -0.101000
     10 O1           0.1650    -0.4950     4.0450 oh         1 PPP      -0.643000
     11 O2          -1.2370    -0.5250     1.6200 oh         1 PPP      -0.631000
     12 H11         -0.2270     1.4040     3.2670 h1         1 PPP       0.017200
     13 H12          1.4520     0.8570     3.1090 h1         1 PPP       0.017200
     14 H2           0.8220    -0.8160     1.4320 h1         1 PPP       0.088700
     15 H31         -0.4740     1.8700     0.7170 hc         1 PPP       0.048700
     16 H32          1.2470     1.5520     0.6720 hc         1 PPP       0.048700
     17 H7          -1.8580     1.2780    -1.1940 ha         1 PPP       0.107000
     18 H3          -2.0290     0.3870    -3.5080 ha         1 PPP       0.112000
     19 H4          -0.1230    -0.8720    -4.5090 ha         1 PPP       0.112000
     20 H5           1.9590    -1.2360    -3.1850 ha         1 PPP       0.112000
     21 H6           2.1380    -0.3460    -0.8720 ha         1 PPP       0.107000
     22 HO1          0.4180    -0.1230     4.9200 ho         1 PPP       0.441000
     23 HO2         -1.3620    -0.9180     2.5130 ho         1 PPP       0.433000
@<TRIPOS>BOND
     1     1     2 1   
     2     1    10 1   
     3     1    12 1   
     4     1    13 1   
     5     2     3 1   
     6     2    11 1   
     7     2    14 1   
     8     3     4 1   
     9     3    15 1   
    10     3    16 1   
    11     4     5 ar  
    12     4     9 ar  
    13     5     6 ar  
    14     5    17 1   
    15     6     7 ar  
    16     6    18 1   
    17     7     8 ar  
    18     7    19 1   
    19     8     9 ar  
    20     8    20 1   
    21     9    21 1   
    22    10    22 1   
    23    11    23 1   
@<TRIPOS>SUBSTRUCTURE
     1 PPP         1 TEMP              0 ****  ****    0 ROOT
