@<TRIPOS>MOLECULE
PPP
   23    23     1     0     0
SMALL
bcc


@<TRIPOS>ATOM
      1 C1           0.3950     0.4530     3.0450 c3         1 PPP       0.105400
      2 C2           0.1840    -0.1000     1.6450 c3         1 PPP       0.146100
      3 C3           0.3610     1.0180     0.6110 c3         1 PPP      -0.068100
      4 C7           0.1970     0.5260    -0.7970 ca         1 PPP      -0.072300
      5 C8          -1.0180     0.6510    -1.4650 ca         1 PPP      -0.119000
      6 C9          -1.1760     0.1660    -2.7570 ca         1 PPP      -0.125000
      7 C4          -0.1170    -0.4610    -3.4000 ca         1 PPP      -0.126000
      8 C5           1.1000    -0.5950    -2.7430 ca         1 PPP      -0.125000
      9 C6           1.2530    -0.1030    -1.4540 ca         1 PPP      -0.119000
     10 O1           0.3360    -0.5990     3.9770 oh         1 PPP      -0.580800
     11 O2          -1.0540    -0.7560     1.5080 oh         1 PPP      -0.568800
     12 H11         -0.3710     1.2180     3.2460 h1         1 PPP       0.017200
     13 H12          1.3650     0.9670     3.0720 h1         1 PPP       0.017200
     14 H2           0.9450    -0.8660     1.4570 h1         1 PPP       0.088700
     15 H31         -0.3610     1.8160     0.8140 hc         1 PPP       0.048700
     16 H32          1.3540     1.4560     0.7400 hc         1 PPP       0.048700
     17 H7          -1.8490     1.1440    -0.9730 ha         1 PPP       0.125000
     18 H3          -2.1280     0.2770    -3.2610 ha         1 PPP       0.130000
     19 H4          -0.2390    -0.8410    -4.4070 ha         1 PPP       0.130000
     20 H5           1.9340    -1.0790    -3.2360 ha         1 PPP       0.130000
     21 H6           2.2080    -0.2070    -0.9510 ha         1 PPP       0.125000
     22 HO1          0.4230    -0.2230     4.8570 ho         1 PPP       0.402000
     23 HO2         -1.7590    -0.1130     1.6410 ho         1 PPP       0.394000
@<TRIPOS>BOND
     1     1     2 1   
     2     1    10 1   
     3     1    12 1   
     4     1    13 1   
     5     2     3 1   
     6     2    11 1   
     7     2    14 1   
     8     3     4 1   
     9     3    15 1   
    10     3    16 1   
    11     4     5 ar  
    12     4     9 ar  
    13     5     6 ar  
    14     5    17 1   
    15     6     7 ar  
    16     6    18 1   
    17     7     8 ar  
    18     7    19 1   
    19     8     9 ar  
    20     8    20 1   
    21     9    21 1   
    22    10    22 1   
    23    11    23 1   
@<TRIPOS>SUBSTRUCTURE
     1 PPP         1 TEMP              0 ****  ****    0 ROOT
