@<TRIPOS>MOLECULE
PPQ
   21    20     1     0     0
SMALL
abcg2


@<TRIPOS>ATOM
      1 NP          -1.9070     0.3800    -1.9910 n8         1 PPQ      -1.004200
      2 CAP         -0.4800     0.5870    -1.8080 c3         1 PPQ       0.023500
      3 CBP          0.0950    -0.0100    -0.5110 c3         1 PPQ      -0.063400
      4 CGP         -0.5120     0.5690     0.7620 c3         1 PPQ      -0.435400
      5 PDP          0.2530    -0.1290     2.2810 p5         1 PPQ       1.407000
      6 CEP         -0.6470     0.7550     3.6140 c3         1 PPQ      -0.458100
      7 OEA          1.7140     0.2820     2.3280 o          1 PPQ      -0.840500
      8 OEB         -0.0830    -1.6070     2.3660 o          1 PPQ      -0.840500
      9 CP           0.3100     0.0060    -3.0000 c          1 PPQ       0.725000
     10 OP          -0.2200    -0.9270    -3.6360 o          1 PPQ      -0.754000
     11 OTP          1.4430     0.4900    -3.2000 o          1 PPQ      -0.754000
     12 HNP1        -2.0620    -0.6000    -2.1950 hn         1 PPQ       0.372500
     13 HNP2        -2.4020     0.5810    -1.1310 hn         1 PPQ       0.372500
     14 HAP         -0.2960     1.6680    -1.7740 h1         1 PPQ       0.031700
     15 HBP1         1.1750     0.1590    -0.4960 hc         1 PPQ       0.050700
     16 HBP2        -0.0490    -1.0960    -0.5240 hc         1 PPQ       0.050700
     17 HGP1        -1.5900     0.3800     0.8020 hc         1 PPQ       0.020700
     18 HGP2        -0.3880     1.6580     0.7690 hc         1 PPQ       0.020700
     19 HEP1        -0.2860     0.4160     4.5880 hc         1 PPQ       0.024700
     20 HEP2        -0.4900     1.8330     3.5570 hc         1 PPQ       0.024700
     21 HEP3        -1.7200     0.5650     3.5700 hc         1 PPQ       0.024700
@<TRIPOS>BOND
     1     1     2 1   
     2     1    12 1   
     3     1    13 1   
     4     2     3 1   
     5     2     9 1   
     6     2    14 1   
     7     3     4 1   
     8     3    15 1   
     9     3    16 1   
    10     4     5 1   
    11     4    17 1   
    12     4    18 1   
    13     5     6 1   
    14     5     7 1   
    15     5     8 1   
    16     6    19 1   
    17     6    20 1   
    18     6    21 1   
    19     9    10 1   
    20     9    11 1   
@<TRIPOS>SUBSTRUCTURE
     1 PPQ         1 TEMP              0 ****  ****    0 ROOT
