@<TRIPOS>MOLECULE
PPQ
   21    20     1     0     0
SMALL
No Charge or Current Charge


@<TRIPOS>ATOM
      1 NP          -1.9300     0.4710    -1.9220 n8         1 PPQ      -1.004200
      2 CAP         -0.4280     0.5720    -1.8500 c3         1 PPQ       0.023500
      3 CBP          0.0830    -0.0830    -0.5370 c3         1 PPQ      -0.063400
      4 CGP         -0.5020     0.5350     0.7660 c3         1 PPQ      -0.435400
      5 PDP          0.2080    -0.1480     2.3280 p5         1 PPQ       1.407000
      6 CEP         -0.6920     0.7810     3.6330 c3         1 PPQ      -0.458100
      7 OEA          1.6700     0.1560     2.4150 o          1 PPQ      -0.840500
      8 OEB         -0.0990    -1.6070     2.4490 o          1 PPQ      -0.840500
      9 CP           0.3870     0.0360    -3.1060 c          1 PPQ       0.725000
     10 OP           0.2410    -1.1330    -3.4480 o          1 PPQ      -0.754000
     11 OTP          1.0800     0.8280    -3.7330 o          1 PPQ      -0.754000
     12 HNP1        -2.1790    -0.5120    -2.0780 hn         1 PPQ       0.372500
     13 HNP2        -2.2960     0.6680    -0.9830 hn         1 PPQ       0.372500
     14 HAP         -0.1980     1.6440    -1.7740 h1         1 PPQ       0.031700
     15 HBP1         1.1760     0.0140    -0.5110 hc         1 PPQ       0.050700
     16 HBP2        -0.1290    -1.1600    -0.5590 hc         1 PPQ       0.050700
     17 HGP1        -1.5850     0.3750     0.8160 hc         1 PPQ       0.020700
     18 HGP2        -0.3250     1.6170     0.7770 hc         1 PPQ       0.020700
     19 HEP1        -0.3490     0.4590     4.6230 hc         1 PPQ       0.024700
     20 HEP2        -0.5060     1.8540     3.5200 hc         1 PPQ       0.024700
     21 HEP3        -1.7680     0.5930     3.5470 hc         1 PPQ       0.024700
@<TRIPOS>BOND
     1     1     2 1   
     2     1    12 1   
     3     1    13 1   
     4     2     3 1   
     5     2     9 1   
     6     2    14 1   
     7     3     4 1   
     8     3    15 1   
     9     3    16 1   
    10     4     5 1   
    11     4    17 1   
    12     4    18 1   
    13     5     6 1   
    14     5     7 1   
    15     5     8 1   
    16     6    19 1   
    17     6    20 1   
    18     6    21 1   
    19     9    10 1   
    20     9    11 1   
@<TRIPOS>SUBSTRUCTURE
     1 PPQ         1 TEMP              0 ****  ****    0 ROOT
