@<TRIPOS>MOLECULE
PPR
   12    11     1     0     0
SMALL
abcg2


@<TRIPOS>ATOM
      1 C1           0.3440     0.0020     2.5860 c          1 PPR       0.606000
      2 O1           1.5840     0.0190     2.6890 o          1 PPR      -0.774000
      3 O2          -0.4970    -0.0100     3.4990 o          1 PPR      -0.774000
      4 C2          -0.2300    -0.0060     1.1300 c          1 PPR       0.489100
      5 C3           0.7430    -0.0420    -0.0050 c3         1 PPR      -0.486400
      6 O4          -1.4310     0.0140     0.9810 o          1 PPR      -0.575100
      7 P            0.0640     0.0040    -1.7400 p5         1 PPR       1.341500
      8 O1P         -0.7080     1.3220    -1.8610 o          1 PPR      -0.959833
      9 O2P          1.3380    -0.0340    -2.6030 o          1 PPR      -0.959833
     10 O3P         -0.8020    -1.2510    -1.8920 o          1 PPR      -0.959833
     11 H31          1.4540     0.7780     0.1480 hc         1 PPR       0.026700
     12 H32          1.3620    -0.9380     0.1330 hc         1 PPR       0.026700
@<TRIPOS>BOND
     1     1     2 1   
     2     1     3 1   
     3     1     4 1   
     4     4     5 1   
     5     4     6 2   
     6     5     7 1   
     7     5    11 1   
     8     5    12 1   
     9     7     8 1   
    10     7     9 1   
    11     7    10 1   
@<TRIPOS>SUBSTRUCTURE
     1 PPR         1 TEMP              0 ****  ****    0 ROOT
