@<TRIPOS>MOLECULE
PPR
   12    11     1     0     0
SMALL
No Charge or Current Charge


@<TRIPOS>ATOM
      1 C1           0.1220     0.5590     2.2220 c          1 PPR       0.606000
      2 O1           1.2590     0.9480     2.4820 o          1 PPR      -0.774000
      3 O2          -0.8550     0.9430     2.8650 o          1 PPR      -0.774000
      4 C2          -0.0840    -0.6180     1.0950 c          1 PPR       0.489100
      5 C3           0.8980    -0.6980    -0.0720 c3         1 PPR      -0.486400
      6 O4          -0.9890    -1.4540     1.1850 o          1 PPR      -0.575100
      7 P            0.1400     0.3280    -1.3480 p5         1 PPR       1.341500
      8 O1P         -0.3480     1.5960    -0.7430 o          1 PPR      -0.959833
      9 O2P          1.1890     0.6170    -2.3670 o          1 PPR      -0.959833
     10 O3P         -0.9810    -0.4240    -1.9760 o          1 PPR      -0.959833
     11 H31          1.8520    -0.2190     0.1670 hc         1 PPR       0.026700
     12 H32          1.0190    -1.7200    -0.4470 hc         1 PPR       0.026700
@<TRIPOS>BOND
     1     1     2 1   
     2     1     3 1   
     3     1     4 1   
     4     4     5 1   
     5     4     6 2   
     6     5     7 1   
     7     5    11 1   
     8     5    12 1   
     9     7     8 1   
    10     7     9 1   
    11     7    10 1   
@<TRIPOS>SUBSTRUCTURE
     1 PPR         1 TEMP              0 ****  ****    0 ROOT
