@<TRIPOS>MOLECULE
PPT
   23    23     1     0     0
SMALL
bcc


@<TRIPOS>ATOM
      1 CA           0.0780    -0.4320    -1.8550 c3         1 PPT      -0.203400
      2 C            0.0580    -0.2050    -3.3770 c          1 PPT       0.927600
      3 OT1         -0.2070     0.9410    -3.7910 o          1 PPT      -0.845800
      4 OT2          0.3030    -1.2080    -4.0780 o          1 PPT      -0.845800
      5 CB          -0.0960     0.8190    -0.9980 c3         1 PPT      -0.023100
      6 CG          -0.0660     0.5000     0.4710 ca         1 PPT      -0.044300
      7 CD1          1.1430     0.2680     1.1280 ca         1 PPT      -0.133500
      8 CD2         -1.2360     0.3780     1.2120 ca         1 PPT      -0.133500
      9 CE1          1.1770    -0.0740     2.4710 ca         1 PPT      -0.133000
     10 CE2         -1.2030     0.0350     2.5600 ca         1 PPT      -0.133000
     11 CZ           0.0020    -0.1970     3.2140 ca         1 PPT      -0.111300
     12 CH           0.0470    -0.5460     4.6740 c3         1 PPT      -0.033800
     13 HA1          1.0150    -0.9320    -1.5900 hc         1 PPT       0.020700
     14 HA2         -0.7090    -1.1540    -1.6080 hc         1 PPT       0.020700
     15 HB1         -1.0410     1.3050    -1.2510 hc         1 PPT       0.050700
     16 HB2          0.6930     1.5370    -1.2350 hc         1 PPT       0.050700
     17 HD1          2.0730     0.3580     0.5790 ha         1 PPT       0.130500
     18 HD2         -2.1930     0.5530     0.7330 ha         1 PPT       0.130500
     19 HE1          2.1330    -0.2490     2.9510 ha         1 PPT       0.111500
     20 HE2         -2.1340    -0.0560     3.1080 ha         1 PPT       0.111500
     21 HH1          0.3890     0.3010     5.2720 hc         1 PPT       0.028367
     22 HH2         -0.9350    -0.8330     5.0470 hc         1 PPT       0.028367
     23 HH3          0.7340    -1.3710     4.8670 hc         1 PPT       0.028367
@<TRIPOS>BOND
     1     1     2 1   
     2     1     5 1   
     3     1    13 1   
     4     1    14 1   
     5     2     3 1   
     6     2     4 1   
     7     5     6 1   
     8     5    15 1   
     9     5    16 1   
    10     6     7 ar  
    11     6     8 ar  
    12     7     9 ar  
    13     7    17 1   
    14     8    10 ar  
    15     8    18 1   
    16     9    11 ar  
    17     9    19 1   
    18    10    11 ar  
    19    10    20 1   
    20    11    12 1   
    21    12    21 1   
    22    12    22 1   
    23    12    23 1   
@<TRIPOS>SUBSTRUCTURE
     1 PPT         1 TEMP              0 ****  ****    0 ROOT
