@<TRIPOS>MOLECULE
PPT
   23    23     1     0     0
SMALL
No Charge or Current Charge


@<TRIPOS>ATOM
      1 CA          -0.1200    -0.5190    -1.8980 c3         1 PPT      -0.203400
      2 C           -0.0910    -0.1360    -3.3860 c          1 PPT       0.717000
      3 OT1         -1.1420     0.1860    -3.9190 o          1 PPT      -0.740500
      4 OT2          0.9890    -0.1210    -3.9570 o          1 PPT      -0.740500
      5 CB           0.0780     0.7420    -1.0240 c3         1 PPT      -0.023100
      6 CG           0.0580     0.4220     0.4660 ca         1 PPT      -0.044300
      7 CD1          1.2500     0.0980     1.1400 ca         1 PPT      -0.115500
      8 CD2         -1.1540     0.4450     1.1830 ca         1 PPT      -0.115500
      9 CE1          1.2320    -0.1990     2.5140 ca         1 PPT      -0.115000
     10 CE2         -1.1730     0.1480     2.5570 ca         1 PPT      -0.115000
     11 CZ           0.0200    -0.1770     3.2300 ca         1 PPT      -0.111300
     12 CH           0.0000    -0.4950     4.7170 c3         1 PPT      -0.033800
     13 HA1          0.7170    -1.1860    -1.6550 hc         1 PPT       0.020700
     14 HA2         -1.1020    -0.9230    -1.6220 hc         1 PPT       0.020700
     15 HB1         -0.7070     1.4720    -1.2610 hc         1 PPT       0.050700
     16 HB2          1.0280     1.2220    -1.2910 hc         1 PPT       0.050700
     17 HD1          2.1930     0.0740     0.5980 ha         1 PPT       0.112500
     18 HD2         -2.0830     0.6910     0.6740 ha         1 PPT       0.112500
     19 HE1          2.1610    -0.4460     3.0220 ha         1 PPT       0.093500
     20 HE2         -2.1160     0.1710     3.0980 ha         1 PPT       0.093500
     21 HH1          0.1430     0.4150     5.3120 hc         1 PPT       0.028367
     22 HH2         -0.9530    -0.9460     5.0170 hc         1 PPT       0.028367
     23 HH3          0.7970    -1.1990     4.9860 hc         1 PPT       0.028367
@<TRIPOS>BOND
     1     1     2 1   
     2     1     5 1   
     3     1    13 1   
     4     1    14 1   
     5     2     3 1   
     6     2     4 1   
     7     5     6 1   
     8     5    15 1   
     9     5    16 1   
    10     6     7 ar  
    11     6     8 ar  
    12     7     9 ar  
    13     7    17 1   
    14     8    10 ar  
    15     8    18 1   
    16     9    11 ar  
    17     9    19 1   
    18    10    11 ar  
    19    10    20 1   
    20    11    12 1   
    21    12    21 1   
    22    12    22 1   
    23    12    23 1   
@<TRIPOS>SUBSTRUCTURE
     1 PPT         1 TEMP              0 ****  ****    0 ROOT
