@<TRIPOS>MOLECULE
PPV
    9     8     1     0     0
SMALL
abcg2


@<TRIPOS>ATOM
      1 O11         21.1990    23.5320    14.4040 o          1 PPV      -1.009333
      2 P1          20.7620    22.2380    15.0900 p5         1 PPV       1.414400
      3 O21         21.9050    21.5270    15.8210 o          1 PPV      -1.009333
      4 O31         19.9780    21.3050    14.1650 o          1 PPV      -1.009333
      5 OPP         19.7420    22.6490    16.3380 os         1 PPV      -0.774800
      6 P2          18.3980    23.6030    16.5570 p5         1 PPV       1.414400
      7 O12         18.8370    25.0580    16.3870 o          1 PPV      -1.009333
      8 O22         17.3580    23.1650    15.5230 o          1 PPV      -1.009333
      9 O32         17.9950    23.2710    17.9950 o          1 PPV      -1.009333
@<TRIPOS>BOND
     1     1     2 1   
     2     2     3 1   
     3     2     4 1   
     4     2     5 1   
     5     5     6 1   
     6     6     7 1   
     7     6     8 1   
     8     6     9 1   
@<TRIPOS>SUBSTRUCTURE
     1 PPV         1 TEMP              0 ****  ****    0 ROOT
