@<TRIPOS>MOLECULE
PPV
    9     8     1     0     0
SMALL
No Charge or Current Charge


@<TRIPOS>ATOM
      1 O11         20.8580    23.4400    14.3040 o          1 PPV      -1.009333
      2 P1          20.6250    22.2590    15.1840 p5         1 PPV       1.414400
      3 O21         21.9620    21.7680    15.6210 o          1 PPV      -1.009333
      4 O31         19.9800    21.1550    14.4170 o          1 PPV      -1.009333
      5 OPP         19.8080    22.5910    16.4970 os         1 PPV      -0.774800
      6 P2          18.5540    23.5550    16.5180 p5         1 PPV       1.414400
      7 O12         18.9760    24.9810    16.6260 o          1 PPV      -1.009333
      8 O22         17.6310    23.3680    15.3620 o          1 PPV      -1.009333
      9 O32         17.7810    23.2300    17.7510 o          1 PPV      -1.009333
@<TRIPOS>BOND
     1     1     2 1   
     2     2     3 1   
     3     2     4 1   
     4     2     5 1   
     5     5     6 1   
     6     6     7 1   
     7     6     8 1   
     8     6     9 1   
@<TRIPOS>SUBSTRUCTURE
     1 PPV         1 TEMP              0 ****  ****    0 ROOT
