@<TRIPOS>MOLECULE
PPX
   55    57     1     0     0
SMALL
No Charge or Current Charge


@<TRIPOS>ATOM
      1 N1           2.6460     2.0290    -0.4920 n8         1 PPX      -0.980200
      2 C2           2.8510     0.5560    -0.2480 c3         1 PPX       0.104500
      3 C10          1.5290    -0.3020    -0.2100 c          1 PPX       0.567100
      4 O11          0.5580     0.0120    -0.8930 o          1 PPX      -0.625100
      5 C3           3.8490    -0.0340    -1.2830 c3         1 PPX      -0.025100
      6 C4           5.2680     0.5120    -1.1460 ca         1 PPX      -0.068300
      7 C5           6.0760     0.1220    -0.0590 ca         1 PPX      -0.097500
      8 C6           5.7920     1.3970    -2.1110 ca         1 PPX      -0.097500
      9 C7           7.3870     0.6130     0.0660 ca         1 PPX      -0.110000
     10 C8           7.1030     1.8880    -1.9860 ca         1 PPX      -0.110000
     11 C9           7.9010     1.4970    -0.8980 ca         1 PPX      -0.109000
     12 N12          1.4660    -1.4370     0.6350 n          1 PPX      -0.396800
     13 C14          0.2240    -2.2520     0.7940 c5         1 PPX       0.027700
     14 C17         -1.0500    -1.4600     1.2380 c          1 PPX       0.602100
     15 O18         -1.0950    -0.3920     1.8370 o          1 PPX      -0.589100
     16 C15          0.6280    -3.2120     1.9550 c5         1 PPX      -0.085400
     17 C16          2.1450    -3.3970     1.7170 c5         1 PPX      -0.093400
     18 C13          2.5990    -1.9440     1.4390 c5         1 PPX       0.107000
     19 N19         -2.1780    -2.1610     0.8590 ns         1 PPX      -0.493900
     20 C20         -3.5570    -1.7060     1.0870 c3         1 PPX       0.088000
     21 C30         -3.9510    -0.4920     0.2090 c3         1 PPX       0.195800
     22 N27         -5.3620    -0.1010     0.4150 nu         1 PPX      -0.968200
     23 C21         -6.0460     0.9400    -0.2050 ca         1 PPX       0.370000
     24 C22         -7.3700     1.1950     0.1480 ca         1 PPX      -0.253000
     25 C23         -8.0490     2.2440    -0.4820 ca         1 PPX       0.370400
     26 N24         -7.4770     3.0270    -1.4220 nb         1 PPX      -0.704000
     27 C25         -6.1940     2.7730    -1.7580 ca         1 PPX       0.370400
     28 C26         -5.4450     1.7440    -1.1760 ca         1 PPX      -0.253000
     29 HN11         2.0900     2.1400    -1.3490 hn         1 PPX       0.410500
     30 HN12         2.0200     2.4050     0.2310 hn         1 PPX       0.410500
     31 H2           3.3090     0.4640     0.7450 h1         1 PPX       0.074700
     32 H31          3.8780    -1.1250    -1.1770 hc         1 PPX       0.052700
     33 H32          3.4620     0.1460    -2.2940 hc         1 PPX       0.052700
     34 H5           5.6890    -0.5650     0.6910 ha         1 PPX       0.106500
     35 H6           5.1820     1.7060    -2.9560 ha         1 PPX       0.106500
     36 H7           8.0040     0.3080     0.9080 ha         1 PPX       0.111000
     37 H8           7.5000     2.5720    -2.7340 ha         1 PPX       0.111000
     38 H9           8.9160     1.8770    -0.8020 ha         1 PPX       0.111000
     39 H14          0.0150    -2.8020    -0.1330 h1         1 PPX       0.063700
     40 H151         0.4460    -2.7570     2.9370 hc         1 PPX       0.064200
     41 H152         0.0760    -4.1580     1.9300 hc         1 PPX       0.064200
     42 H161         2.3340    -4.0430     0.8510 hc         1 PPX       0.057700
     43 H162         2.6610    -3.8400     2.5760 hc         1 PPX       0.057700
     44 H131         3.5560    -1.9220     0.9040 h1         1 PPX       0.054700
     45 H132         2.7040    -1.3690     2.3690 h1         1 PPX       0.054700
     46 H19         -2.0330    -3.0400     0.3760 hn         1 PPX       0.316500
     47 H201        -4.2350    -2.5430     0.8710 h1         1 PPX       0.059700
     48 H202        -3.6710    -1.4430     2.1470 h1         1 PPX       0.059700
     49 H301        -3.2910     0.3530     0.4480 h1         1 PPX       0.056700
     50 H302        -3.7870    -0.7540    -0.8460 h1         1 PPX       0.056700
     51 H27         -5.8970    -0.6210     1.1140 hn         1 PPX       0.481000
     52 H22         -7.8760     0.5960     0.8980 ha         1 PPX       0.120500
     53 H23         -9.0840     2.4680    -0.2270 h4         1 PPX       0.011100
     54 H25         -5.7540     3.4170    -2.5190 h4         1 PPX       0.011100
     55 H26         -4.4190     1.5870    -1.4870 ha         1 PPX       0.120500
@<TRIPOS>BOND
     1     1     2 1   
     2     1    29 1   
     3     1    30 1   
     4     2     3 1   
     5     2     5 1   
     6     2    31 1   
     7     3     4 2   
     8     3    12 1   
     9     5     6 1   
    10     5    32 1   
    11     5    33 1   
    12     6     7 ar  
    13     6     8 ar  
    14     7     9 ar  
    15     7    34 1   
    16     8    10 ar  
    17     8    35 1   
    18     9    11 ar  
    19     9    36 1   
    20    10    11 ar  
    21    10    37 1   
    22    11    38 1   
    23    12    13 1   
    24    12    18 1   
    25    13    14 1   
    26    13    16 1   
    27    13    39 1   
    28    14    15 2   
    29    14    19 1   
    30    16    17 1   
    31    16    40 1   
    32    16    41 1   
    33    17    18 1   
    34    17    42 1   
    35    17    43 1   
    36    18    44 1   
    37    18    45 1   
    38    19    20 1   
    39    19    46 1   
    40    20    21 1   
    41    20    47 1   
    42    20    48 1   
    43    21    22 1   
    44    21    49 1   
    45    21    50 1   
    46    22    23 1   
    47    22    51 1   
    48    23    24 ar  
    49    23    28 ar  
    50    24    25 ar  
    51    24    52 1   
    52    25    26 ar  
    53    25    53 1   
    54    26    27 ar  
    55    27    28 ar  
    56    27    54 1   
    57    28    55 1   
@<TRIPOS>SUBSTRUCTURE
     1 PPX         1 TEMP              0 ****  ****    0 ROOT
