@<TRIPOS>MOLECULE
PPX
   55    57     1     0     0
SMALL
bcc


@<TRIPOS>ATOM
      1 N1           2.0580     1.6500    -0.3510 n8         1 PPX      -0.869800
      2 C2           2.4560     0.2990    -0.0370 c3         1 PPX       0.104500
      3 C10          1.2720    -0.6690     0.0570 c          1 PPX       0.634100
      4 O11          0.2730    -0.5070    -0.6340 o          1 PPX      -0.625100
      5 C3           3.4170    -0.2350    -1.1130 c3         1 PPX      -0.025100
      6 C4           4.6840     0.5660    -1.1970 ca         1 PPX      -0.068300
      7 C5           5.7370     0.3030    -0.3230 ca         1 PPX      -0.115500
      8 C6           4.8310     1.5940    -2.1230 ca         1 PPX      -0.115500
      9 C7           6.9080     1.0470    -0.3720 ca         1 PPX      -0.128000
     10 C8           6.0010     2.3390    -2.1800 ca         1 PPX      -0.128000
     11 C9           7.0440     2.0690    -1.3030 ca         1 PPX      -0.127000
     12 N12          1.3790    -1.7150     0.8910 n          1 PPX      -0.463800
     13 C14          0.2730    -2.6470     1.0300 c5         1 PPX       0.027700
     14 C17         -1.0090    -1.9090     1.3950 c          1 PPX       0.669100
     15 O18         -1.0120    -1.0190     2.2290 o          1 PPX      -0.589100
     16 C15          0.7240    -3.5790     2.1630 c5         1 PPX      -0.085400
     17 C16          2.2450    -3.4980     2.1080 c5         1 PPX      -0.093400
     18 C13          2.4950    -2.0350     1.7730 c5         1 PPX       0.107000
     19 N19         -2.1180    -2.3710     0.7960 ns         1 PPX      -0.560900
     20 C20         -3.4100    -1.7620     0.9780 c3         1 PPX       0.088000
     21 C30         -3.6040    -0.5670     0.0500 c3         1 PPX       0.195800
     22 N27         -4.9010     0.0220     0.2780 nu         1 PPX      -0.774600
     23 C21         -5.3320     1.1430    -0.3420 ca         1 PPX       0.231600
     24 C22         -6.6570     1.5880    -0.1850 ca         1 PPX      -0.336300
     25 C23         -7.0600     2.7460    -0.8120 ca         1 PPX       0.435700
     26 N24         -6.2750     3.5050    -1.5800 nb         1 PPX      -0.704000
     27 C25         -5.0250     3.0790    -1.7290 ca         1 PPX       0.435700
     28 C26         -4.5030     1.9340    -1.1550 ca         1 PPX      -0.336300
     29 HN11         1.4880     1.6530    -1.1890 hn         1 PPX       0.355300
     30 HN12         1.4740     2.0190     0.3880 hn         1 PPX       0.355300
     31 H2           2.9870     0.3270     0.9190 h1         1 PPX       0.074700
     32 H31          3.6580    -1.2810    -0.9030 hc         1 PPX       0.052700
     33 H32          2.8980    -0.2270    -2.0760 hc         1 PPX       0.052700
     34 H5           5.6420    -0.4980     0.4010 ha         1 PPX       0.124500
     35 H6           4.0250     1.8100    -2.8140 ha         1 PPX       0.124500
     36 H7           7.7170     0.8250     0.3130 ha         1 PPX       0.129000
     37 H8           6.0980     3.1320    -2.9100 ha         1 PPX       0.129000
     38 H9           7.9570     2.6490    -1.3470 ha         1 PPX       0.129000
     39 H14          0.1390    -3.2130     0.1020 h1         1 PPX       0.063700
     40 H151         0.3680    -3.2050     3.1250 hc         1 PPX       0.064200
     41 H152         0.3380    -4.5880     2.0320 hc         1 PPX       0.064200
     42 H161         2.6340    -4.1350     1.3110 hc         1 PPX       0.057700
     43 H162         2.7210    -3.7960     3.0410 hc         1 PPX       0.057700
     44 H131         3.4550    -1.8860     1.2800 h1         1 PPX       0.054700
     45 H132         2.4750    -1.4120     2.6710 h1         1 PPX       0.054700
     46 H19         -2.0210    -3.0470     0.0560 hn         1 PPX       0.316500
     47 H201        -4.1730    -2.5170     0.7820 h1         1 PPX       0.059700
     48 H202        -3.5220    -1.4490     2.0170 h1         1 PPX       0.059700
     49 H301        -2.8210     0.1680     0.2510 h1         1 PPX       0.056700
     50 H302        -3.4840    -0.8910    -0.9910 h1         1 PPX       0.056700
     51 H27         -5.6070    -0.5640     0.6940 hn         1 PPX       0.425800
     52 H22         -7.3570     1.0320     0.4260 ha         1 PPX       0.138500
     53 H23         -8.0840     3.0840    -0.6870 h4         1 PPX       0.011100
     54 H25         -4.3810     3.6870    -2.3560 h4         1 PPX       0.011100
     55 H26         -3.4720     1.6710    -1.3470 ha         1 PPX       0.138500
@<TRIPOS>BOND
     1     1     2 1   
     2     1    29 1   
     3     1    30 1   
     4     2     3 1   
     5     2     5 1   
     6     2    31 1   
     7     3     4 2   
     8     3    12 1   
     9     5     6 1   
    10     5    32 1   
    11     5    33 1   
    12     6     7 ar  
    13     6     8 ar  
    14     7     9 ar  
    15     7    34 1   
    16     8    10 ar  
    17     8    35 1   
    18     9    11 ar  
    19     9    36 1   
    20    10    11 ar  
    21    10    37 1   
    22    11    38 1   
    23    12    13 1   
    24    12    18 1   
    25    13    14 1   
    26    13    16 1   
    27    13    39 1   
    28    14    15 2   
    29    14    19 1   
    30    16    17 1   
    31    16    40 1   
    32    16    41 1   
    33    17    18 1   
    34    17    42 1   
    35    17    43 1   
    36    18    44 1   
    37    18    45 1   
    38    19    20 1   
    39    19    46 1   
    40    20    21 1   
    41    20    47 1   
    42    20    48 1   
    43    21    22 1   
    44    21    49 1   
    45    21    50 1   
    46    22    23 1   
    47    22    51 1   
    48    23    24 ar  
    49    23    28 ar  
    50    24    25 ar  
    51    24    52 1   
    52    25    26 ar  
    53    25    53 1   
    54    26    27 ar  
    55    27    28 ar  
    56    27    54 1   
    57    28    55 1   
@<TRIPOS>SUBSTRUCTURE
     1 PPX         1 TEMP              0 ****  ****    0 ROOT
