@<TRIPOS>MOLECULE
PPY
   19    19     1     0     0
SMALL
No Charge or Current Charge


@<TRIPOS>ATOM
      1 C1           0.2180    -0.7660     2.3720 c          1 PPY       0.648000
      2 O1          -0.7930    -1.3490     2.7600 o          1 PPY      -0.695500
      3 O2           1.3540    -1.1290     2.6720 o          1 PPY      -0.695500
      4 C2           0.0480     0.5540     1.4500 c          1 PPY       0.429100
      5 O3           0.8020     1.5270     1.5450 o          1 PPY      -0.550100
      6 C3          -1.0970     0.5530     0.4180 c3         1 PPY      -0.162100
      7 C7          -0.5550     0.2600    -0.9740 ca         1 PPY      -0.031300
      8 C8          -0.4070    -1.0710    -1.4110 ca         1 PPY      -0.107000
      9 C9           0.0970    -1.3450    -2.6950 ca         1 PPY      -0.117500
     10 C4           0.4550    -0.2890    -3.5490 ca         1 PPY      -0.137000
     11 C5           0.3110     1.0410    -3.1190 ca         1 PPY      -0.117500
     12 C6          -0.1920     1.3140    -1.8350 ca         1 PPY      -0.107000
     13 H31         -1.8330    -0.2150     0.6800 hc         1 PPY       0.071700
     14 H32         -1.5820     1.5350     0.4280 hc         1 PPY       0.071700
     15 H2          -0.6810    -1.8950    -0.7560 ha         1 PPY       0.109500
     16 H3           0.2090    -2.3740    -3.0270 ha         1 PPY       0.094000
     17 H4           0.8450    -0.5000    -4.5420 ha         1 PPY       0.092000
     18 H5           0.5890     1.8590    -3.7790 ha         1 PPY       0.094000
     19 H6          -0.2980     2.3460    -1.5080 ha         1 PPY       0.109500
@<TRIPOS>BOND
     1     1     2 1   
     2     1     3 1   
     3     1     4 1   
     4     4     5 2   
     5     4     6 1   
     6     6     7 1   
     7     6    13 1   
     8     6    14 1   
     9     7     8 ar  
    10     7    12 ar  
    11     8     9 ar  
    12     8    15 1   
    13     9    10 ar  
    14     9    16 1   
    15    10    11 ar  
    16    10    17 1   
    17    11    12 ar  
    18    11    18 1   
    19    12    19 1   
@<TRIPOS>SUBSTRUCTURE
     1 PPY         1 TEMP              0 ****  ****    0 ROOT
