@<TRIPOS>MOLECULE
PPY
   19    19     1     0     0
SMALL
abcg2


@<TRIPOS>ATOM
      1 C1          -0.0560    -0.0230     2.8790 c          1 PPY       0.648000
      2 O1          -1.2670    -0.0510     3.1540 o          1 PPY      -0.695500
      3 O2           0.9160    -0.0000     3.6450 o          1 PPY      -0.695500
      4 C2           0.2830    -0.0160     1.3600 c          1 PPY       0.429100
      5 O3           1.4270    -0.0250     0.9760 o          1 PPY      -0.550100
      6 C3          -0.8880     0.0020     0.4010 c3         1 PPY      -0.162100
      7 C7          -0.4750     0.0080    -1.0380 ca         1 PPY      -0.031300
      8 C8          -0.2340    -1.1850    -1.7140 ca         1 PPY      -0.107000
      9 C9           0.1780    -1.1840    -3.0400 ca         1 PPY      -0.117500
     10 C4           0.3590     0.0180    -3.7120 ca         1 PPY      -0.137000
     11 C5           0.1230     1.2150    -3.0480 ca         1 PPY      -0.117500
     12 C6          -0.2890     1.2070    -1.7220 ca         1 PPY      -0.107000
     13 H31         -1.5230    -0.8590     0.6260 hc         1 PPY       0.071700
     14 H32         -1.5040     0.8750     0.6380 hc         1 PPY       0.071700
     15 H2          -0.3780    -2.1290    -1.2000 ha         1 PPY       0.109500
     16 H3           0.3570    -2.1220    -3.5490 ha         1 PPY       0.094000
     17 H4           0.6770     0.0220    -4.7470 ha         1 PPY       0.092000
     18 H5           0.2580     2.1570    -3.5630 ha         1 PPY       0.094000
     19 H6          -0.4750     2.1460    -1.2150 ha         1 PPY       0.109500
@<TRIPOS>BOND
     1     1     2 1   
     2     1     3 1   
     3     1     4 1   
     4     4     5 2   
     5     4     6 1   
     6     6     7 1   
     7     6    13 1   
     8     6    14 1   
     9     7     8 ar  
    10     7    12 ar  
    11     8     9 ar  
    12     8    15 1   
    13     9    10 ar  
    14     9    16 1   
    15    10    11 ar  
    16    10    17 1   
    17    11    12 ar  
    18    11    18 1   
    19    12    19 1   
@<TRIPOS>SUBSTRUCTURE
     1 PPY         1 TEMP              0 ****  ****    0 ROOT
