@<TRIPOS>MOLECULE
PPZ
   28    30     1     0     0
SMALL
abcg2


@<TRIPOS>ATOM
      1 C4           0.9790     0.0230    -1.0000 ca         1 PPZ       0.088500
      2 C5           0.0300     0.0040     0.0080 ca         1 PPZ      -0.050600
      3 N7          -1.2400    -0.0280    -0.4780 nc         1 PPZ      -0.273400
      4 C8          -1.0880    -0.0300    -1.7860 cd         1 PPZ      -0.037000
      5 C13         -2.0560    -0.0590    -2.8170 cd         1 PPZ      -0.099000
      6 C12         -1.6440    -0.0540    -4.1140 cc         1 PPZ      -0.080000
      7 C11         -0.2590    -0.0220    -4.4450 cc         1 PPZ      -0.173000
      8 C10          0.6700     0.0050    -3.4630 cd         1 PPZ      -0.061000
      9 N9           0.2530     0.0000    -2.1630 na         1 PPZ       0.008500
     10 C6           0.5420     0.0200     1.3290 ca         1 PPZ       0.436900
     11 N6          -0.2680     0.0210     2.3890 nu         1 PPZ      -0.903100
     12 N1           1.8660     0.0460     1.4880 nb         1 PPZ      -0.299000
     13 C2           2.6560     0.0660     0.4120 ca         1 PPZ       0.173900
     14 N3           2.3020     0.0550    -0.8580 nb         1 PPZ      -0.209000
     15 C61          0.1880    -0.0560     3.7590 c3         1 PPZ       0.226800
     16 C7          -0.8820     0.4460     4.7020 c3         1 PPZ       0.141600
     17 O8          -2.0340    -0.3540     4.5450 oh         1 PPZ      -0.666000
     18 H13         -3.1030    -0.0830    -2.5480 ha         1 PPZ       0.143000
     19 H12         -2.3750    -0.0760    -4.9100 ha         1 PPZ       0.123000
     20 H11          0.0590    -0.0180    -5.4770 ha         1 PPZ       0.133000
     21 H10          1.7370     0.0300    -3.6270 h4         1 PPZ       0.162000
     22 H6          -1.2520    -0.1150     2.2180 hn         1 PPZ       0.525000
     23 H2           3.7200     0.0910     0.6160 h5         1 PPZ       0.046100
     24 H61          1.0760     0.5630     3.8800 h1         1 PPZ       0.064200
     25 H62          0.4720    -1.0820     4.0200 h1         1 PPZ       0.064200
     26 H71         -1.0910     1.5000     4.4820 h1         1 PPZ       0.031700
     27 H72         -0.4850     0.3970     5.7230 h1         1 PPZ       0.031700
     28 H8          -2.7500     0.0430     5.0470 ho         1 PPZ       0.449000
@<TRIPOS>BOND
     1     1     2 ar  
     2     1     9 1   
     3     1    14 ar  
     4     2     3 1   
     5     2    10 ar  
     6     3     4 2   
     7     4     5 1   
     8     4     9 1   
     9     5     6 2   
    10     5    18 1   
    11     6     7 1   
    12     6    19 1   
    13     7     8 2   
    14     7    20 1   
    15     8     9 1   
    16     8    21 1   
    17    10    11 1   
    18    10    12 ar  
    19    11    15 1   
    20    11    22 1   
    21    12    13 ar  
    22    13    14 ar  
    23    13    23 1   
    24    15    16 1   
    25    15    24 1   
    26    15    25 1   
    27    16    17 1   
    28    16    26 1   
    29    16    27 1   
    30    17    28 1   
@<TRIPOS>SUBSTRUCTURE
     1 PPZ         1 TEMP              0 ****  ****    0 ROOT
