@<TRIPOS>MOLECULE
PPZ
   28    30     1     0     0
SMALL
No Charge or Current Charge


@<TRIPOS>ATOM
      1 C4           1.0460    -0.1830    -1.0860 ca         1 PPZ       0.088500
      2 C5           0.1510    -0.0430    -0.0430 ca         1 PPZ      -0.050600
      3 N7          -1.1900    -0.0680    -0.4510 nc         1 PPZ      -0.273400
      4 C8          -1.0570    -0.1840    -1.7780 cd         1 PPZ      -0.037000
      5 C13         -2.1140    -0.0960    -2.7330 cd         1 PPZ      -0.099000
      6 C12         -1.7250    -0.0360    -4.0550 cc         1 PPZ      -0.080000
      7 C11         -0.3250     0.0330    -4.4040 cc         1 PPZ      -0.173000
      8 C10          0.6980    -0.0350    -3.4640 cd         1 PPZ      -0.061000
      9 N9           0.2600    -0.3870    -2.1840 na         1 PPZ       0.008500
     10 C6           0.6710     0.1220     1.2570 ca         1 PPZ       0.436900
     11 N6          -0.1610     0.2700     2.3630 nu         1 PPZ      -0.903100
     12 N1           2.0040     0.1420     1.4680 nb         1 PPZ      -0.299000
     13 C2           2.7920    -0.0020     0.3760 ca         1 PPZ       0.173900
     14 N3           2.3820    -0.1720    -0.9020 nb         1 PPZ      -0.209000
     15 C61          0.2100     0.1210     3.7860 c3         1 PPZ       0.226800
     16 C7          -1.0030     0.4000     4.7200 c3         1 PPZ       0.141600
     17 O8          -2.1600    -0.3680     4.3240 oh         1 PPZ      -0.666000
     18 H13         -3.1560    -0.0220    -2.4380 ha         1 PPZ       0.143000
     19 H12         -2.4670     0.0440    -4.8440 ha         1 PPZ       0.123000
     20 H11         -0.0750     0.1810    -5.4510 ha         1 PPZ       0.133000
     21 H10          1.7620     0.0570    -3.6570 h4         1 PPZ       0.162000
     22 H6          -1.1560     0.1540     2.1580 hn         1 PPZ       0.525000
     23 H2           3.8680     0.0120     0.5450 h5         1 PPZ       0.046100
     24 H61          1.0190     0.8180     4.0460 h1         1 PPZ       0.064200
     25 H62          0.5760    -0.8970     3.9750 h1         1 PPZ       0.064200
     26 H71         -1.2350     1.4720     4.6820 h1         1 PPZ       0.031700
     27 H72         -0.7170     0.1600     5.7520 h1         1 PPZ       0.031700
     28 H8          -2.8760    -0.1610     4.9670 ho         1 PPZ       0.449000
@<TRIPOS>BOND
     1     1     2 ar  
     2     1     9 1   
     3     1    14 ar  
     4     2     3 1   
     5     2    10 ar  
     6     3     4 2   
     7     4     5 1   
     8     4     9 1   
     9     5     6 2   
    10     5    18 1   
    11     6     7 1   
    12     6    19 1   
    13     7     8 2   
    14     7    20 1   
    15     8     9 1   
    16     8    21 1   
    17    10    11 1   
    18    10    12 ar  
    19    11    15 1   
    20    11    22 1   
    21    12    13 ar  
    22    13    14 ar  
    23    13    23 1   
    24    15    16 1   
    25    15    24 1   
    26    15    25 1   
    27    16    17 1   
    28    16    26 1   
    29    16    27 1   
    30    17    28 1   
@<TRIPOS>SUBSTRUCTURE
     1 PPZ         1 TEMP              0 ****  ****    0 ROOT
