@<TRIPOS>MOLECULE
PQ0
   18    19     1     0     0
SMALL
abcg2


@<TRIPOS>ATOM
      1 N1          34.5960    36.9590    79.1750 ns         1 PQ0      -0.455400
      2 C2          35.6390    37.8190    79.4040 cc         1 PQ0       0.737800
      3 N3          36.0740    38.6670    78.4950 nd         1 PQ0      -0.718100
      4 C4          35.3970    38.6220    77.3320 cd         1 PQ0       0.172400
      5 C5          34.3210    37.7950    77.0060 cc         1 PQ0      -0.274600
      6 C6          33.8560    36.8690    77.9840 c          1 PQ0       0.618600
      7 O6          32.9380    36.0560    77.8900 o          1 PQ0      -0.528000
      8 C7          33.9390    38.1170    75.6570 cc         1 PQ0      -0.019000
      9 C10         32.8970    37.5450    74.9010 cg         1 PQ0       0.358000
     10 N11         32.0380    37.0760    74.2860 n1         1 PQ0      -0.454000
     11 C8          34.7930    39.1120    75.2280 cd         1 PQ0      -0.142000
     12 N9          35.6620    39.4060    76.2430 na         1 PQ0      -0.111000
     13 N2          36.2000    37.7950    80.6290 nv         1 PQ0      -1.045200
     14 HN1         34.3100    36.3250    79.9110 hn         1 PQ0       0.325500
     15 H8          34.8360    39.6240    74.2820 h4         1 PQ0       0.163000
     16 HN9         36.3910    40.1020    76.1990 hn         1 PQ0       0.365000
     17 HN21        36.0240    37.0310    81.2600 hn         1 PQ0       0.503500
     18 HN22        37.0570    38.3090    80.7540 hn         1 PQ0       0.503500
@<TRIPOS>BOND
     1     1     2 1   
     2     1     6 1   
     3     1    14 1   
     4     2     3 2   
     5     2    13 1   
     6     3     4 1   
     7     4     5 2   
     8     4    12 1   
     9     5     6 1   
    10     5     8 1   
    11     6     7 2   
    12     8     9 1   
    13     8    11 2   
    14     9    10 3   
    15    11    12 1   
    16    11    15 1   
    17    12    16 1   
    18    13    17 1   
    19    13    18 1   
@<TRIPOS>SUBSTRUCTURE
     1 PQ0         1 TEMP              0 ****  ****    0 ROOT
