@<TRIPOS>MOLECULE
PQ0
   18    19     1     0     0
SMALL
No Charge or Current Charge


@<TRIPOS>ATOM
      1 N1          34.5320    36.9750    79.1850 ns         1 PQ0      -0.455400
      2 C2          35.5570    37.8210    79.4090 cc         1 PQ0       0.737800
      3 N3          36.0720    38.6980    78.5760 nd         1 PQ0      -0.718100
      4 C4          35.4390    38.6940    77.3420 cd         1 PQ0       0.172400
      5 C5          34.4010    37.8670    77.0470 cc         1 PQ0      -0.274600
      6 C6          33.8620    36.9110    78.0130 c          1 PQ0       0.618600
      7 O6          32.9330    36.1420    77.8280 o          1 PQ0      -0.528000
      8 C7          33.9970    38.1240    75.7110 cc         1 PQ0      -0.019000
      9 C10         32.9330    37.4610    75.0240 cg         1 PQ0       0.358000
     10 N11         32.0700    36.9360    74.4370 n1         1 PQ0      -0.454000
     11 C8          34.8040    39.1170    75.2010 cd         1 PQ0      -0.142000
     12 N9          35.7050    39.4710    76.2230 na         1 PQ0      -0.111000
     13 N2          36.1100    37.7600    80.6060 nv         1 PQ0      -1.045200
     14 HN1         34.2160    36.3700    79.9230 hn         1 PQ0       0.325500
     15 H8          34.8090    39.5850    74.2230 h4         1 PQ0       0.163000
     16 HN9         36.4310    40.1740    76.1660 hn         1 PQ0       0.365000
     17 HN21        36.1180    36.8510    81.0510 hn         1 PQ0       0.503500
     18 HN22        36.9790    38.2740    80.6720 hn         1 PQ0       0.503500
@<TRIPOS>BOND
     1     1     2 1   
     2     1     6 1   
     3     1    14 1   
     4     2     3 2   
     5     2    13 1   
     6     3     4 1   
     7     4     5 2   
     8     4    12 1   
     9     5     6 1   
    10     5     8 1   
    11     6     7 2   
    12     8     9 1   
    13     8    11 2   
    14     9    10 3   
    15    11    12 1   
    16    11    15 1   
    17    12    16 1   
    18    13    17 1   
    19    13    18 1   
@<TRIPOS>SUBSTRUCTURE
     1 PQ0         1 TEMP              0 ****  ****    0 ROOT
