@<TRIPOS>MOLECULE
PQ2
  102   106     1     0     0
SMALL
abcg2


@<TRIPOS>ATOM
      1 NB          -1.4300     0.9280    -0.1050 ne         1 PQ2      -0.635300
      2 ND           1.4900    -1.7750    -1.8380 na         1 PQ2      -0.139000
      3 C1A         -1.1220    -3.2440    -1.2060 c2         1 PQ2       0.148800
      4 C1B         -2.7060     0.6780    -0.0100 cf         1 PQ2       0.543600
      5 C1C          1.1980     2.5070    -0.4330 cc         1 PQ2      -0.129800
      6 C1D          2.7550    -1.2960    -1.6410 cc         1 PQ2      -0.211300
      7 C2A         -2.4280    -3.9270    -1.5380 c5         1 PQ2       0.010200
      8 C2B         -3.5430     1.8930     0.3550 c5         1 PQ2      -0.100300
      9 C2C          2.3620     3.2470    -0.5880 cd         1 PQ2      -0.083300
     10 C2D          3.4250    -2.1930    -0.8430 cd         1 PQ2      -0.102300
     11 C3A         -3.4570    -3.0780    -0.7500 c5         1 PQ2      -0.058500
     12 C3B         -2.4570     2.8170     0.9460 c5         1 PQ2      -0.047500
     13 C3C          3.3000     2.4170    -1.2610 cd         1 PQ2      -0.142300
     14 C3D          2.5290    -3.2720    -0.5740 cd         1 PQ2      -0.061300
     15 C4A         -2.7650    -1.7460    -0.6240 c2         1 PQ2       0.186800
     16 C4B         -1.2050     2.2430     0.3050 ce         1 PQ2       0.063400
     17 C4C          2.6850     1.2050    -1.4900 cc         1 PQ2      -0.187300
     18 C4D          1.3430    -2.9930    -1.2160 cc         1 PQ2      -0.144800
     19 CAA         -4.8890    -3.0790    -1.2780 c3         1 PQ2      -0.027400
     20 CAB         -2.6280     4.3250     0.7960 c3         1 PQ2      -0.043400
     21 CAC          4.6960     2.7920    -1.6500 c3         1 PQ2       0.039900
     22 CAD          4.8080    -2.0080    -0.3040 c3         1 PQ2       0.027900
     23 CBA         -5.9490    -2.8800    -0.2000 c3         1 PQ2      -0.204400
     24 CBB         -3.8070     4.9170     1.5520 c3         1 PQ2      -0.192400
     25 CBC          5.7010     2.6370    -0.5100 c3         1 PQ2      -0.208400
     26 CBD          4.8340    -1.1230     0.9410 c3         1 PQ2      -0.209400
     27 CCA         -7.4060    -3.0020    -0.6830 c          1 PQ2       0.713000
     28 CCB         -3.8660     6.4560     1.5890 c          1 PQ2       0.707000
     29 CCC          7.1110     3.1640    -0.8080 c          1 PQ2       0.725000
     30 CCD          6.2230    -0.8720     1.5440 c          1 PQ2       0.727000
     31 CDA         -2.4560    -5.4120    -1.1990 c3         1 PQ2      -0.181400
     32 CDB         -4.7110     1.5860     1.2900 c3         1 PQ2      -0.186400
     33 CDC          2.5580     4.6680    -0.1890 c3         1 PQ2      -0.128100
     34 CDD          2.8160    -4.5020     0.2140 c3         1 PQ2      -0.130100
     35 CDE          2.7040    -4.4020     1.7530 c          1 PQ2       0.730000
     36 CEA         -2.0700    -5.8530     0.2260 c          1 PQ2       0.718000
     37 CEB         -4.4140     0.7780     2.5650 c          1 PQ2       0.715000
     38 CEC          3.0040     4.9560     1.2650 c          1 PQ2       0.721000
     39 CHA          0.1100    -3.7510    -1.3360 ce         1 PQ2      -0.226200
     40 CHB         -3.3480    -0.5620    -0.2960 cf         1 PQ2      -0.407600
     41 CHC         -0.0430     2.9150     0.1670 cf         1 PQ2      -0.135200
     42 CHD          3.1880     0.0040    -2.2270 c3         1 PQ2       0.086200
     43 CMA         -2.6430    -3.7640    -3.0530 c3         1 PQ2      -0.076100
     44 CMB         -4.0910     2.4520    -0.9670 c3         1 PQ2      -0.071100
     45 NA          -1.4430    -1.9510    -0.8230 nu         1 PQ2      -0.675000
     46 NC           1.4210     1.2770    -0.9870 na         1 PQ2      -0.084000
     47 O1A         -7.6120    -3.5890    -1.7650 o          1 PQ2      -0.791000
     48 O1B         -4.8800     6.9480     2.1300 o          1 PQ2      -0.785500
     49 O1C          7.8290     3.4380     0.1780 o          1 PQ2      -0.805500
     50 O1D          7.2110    -0.9820     0.7900 o          1 PQ2      -0.787500
     51 O2A         -8.2780    -2.5180     0.0680 o          1 PQ2      -0.791000
     52 O2B         -2.9180     7.0940     1.0900 o          1 PQ2      -0.785500
     53 O2C          7.4510     3.2620    -2.0070 o          1 PQ2      -0.805500
     54 O2D          6.2560    -0.5540     2.7530 o          1 PQ2      -0.787500
     55 O3A         -1.8450    -7.0760     0.3550 o          1 PQ2      -0.733000
     56 O3B         -3.2490     0.3830     2.7620 o          1 PQ2      -0.743000
     57 O3C          3.2870     3.9980     2.0050 o          1 PQ2      -0.750000
     58 O3D          2.3620    -3.3200     2.2580 o          1 PQ2      -0.742500
     59 O4A         -2.0350    -5.0000     1.1310 o          1 PQ2      -0.733000
     60 O4B         -5.3950     0.5850     3.3150 o          1 PQ2      -0.743000
     61 O4C          3.0470     6.1690     1.5690 o          1 PQ2      -0.750000
     62 O4D          2.9700    -5.4580     2.3690 o          1 PQ2      -0.742500
     63 H1          -5.0050    -2.3330    -2.0700 hc         1 PQ2       0.015200
     64 H2          -5.0850    -4.0450    -1.7480 hc         1 PQ2       0.015200
     65 H3          -1.7230     4.8090     1.1690 hc         1 PQ2       0.034200
     66 H4          -2.6860     4.5970    -0.2620 hc         1 PQ2       0.034200
     67 H5           5.0240     2.2010    -2.5080 hc         1 PQ2      -0.004300
     68 H6           4.7060     3.8310    -1.9970 hc         1 PQ2      -0.004300
     69 H7           5.2460    -2.9830    -0.0710 hc         1 PQ2       0.008200
     70 H8           5.4530    -1.5670    -1.0690 hc         1 PQ2       0.008200
     71 H9          -5.7960    -3.6370     0.5800 hc         1 PQ2       0.050700
     72 H10         -5.8320    -1.9210     0.3120 hc         1 PQ2       0.050700
     73 H11         -4.7570     4.5650     1.1390 hc         1 PQ2       0.025200
     74 H12         -3.8000     4.5560     2.5880 hc         1 PQ2       0.025200
     75 H13          5.3040     3.1100     0.3920 hc         1 PQ2       0.079200
     76 H14          5.7920     1.5730    -0.2570 hc         1 PQ2       0.079200
     77 H15          4.4060    -0.1470     0.6790 hc         1 PQ2       0.070700
     78 H16          4.1670    -1.5490     1.6930 hc         1 PQ2       0.070700
     79 H17         -3.4660    -5.7870    -1.4070 hc         1 PQ2      -0.003800
     80 H18         -1.8140    -5.9460    -1.9070 hc         1 PQ2      -0.003800
     81 H19         -5.1860     2.5270     1.5830 hc         1 PQ2       0.012700
     82 H20         -5.4920     1.0550     0.7320 hc         1 PQ2       0.012700
     83 H21          3.3020     5.1300    -0.8470 hc         1 PQ2       0.002700
     84 H22          1.6410     5.2410    -0.3670 hc         1 PQ2       0.002700
     85 H23          2.1460    -5.3070    -0.1050 hc         1 PQ2      -0.000300
     86 H24          3.8240    -4.8660    -0.0170 hc         1 PQ2      -0.000300
     87 H25          0.1870    -4.8080    -1.5620 ha         1 PQ2       0.172000
     88 H26         -4.4180    -0.5850    -0.1650 ha         1 PQ2       0.189000
     89 H27         -0.0280     3.9320     0.5400 ha         1 PQ2       0.187000
     90 H28          4.2780     0.0390    -2.2400 hc         1 PQ2       0.021700
     91 H29         -1.8340    -4.2440    -3.6040 hc         1 PQ2       0.005033
     92 H30         -3.5790    -4.2270    -3.3680 hc         1 PQ2       0.005033
     93 H31         -2.6740    -2.7140    -3.3540 hc         1 PQ2       0.005033
     94 H32         -4.7260     1.7180    -1.4670 hc         1 PQ2       0.007367
     95 H33         -4.6990     3.3430    -0.7950 hc         1 PQ2       0.007367
     96 H34         -3.2880     2.7210    -1.6550 hc         1 PQ2       0.007367
     97 H35         -0.7750    -1.2180    -0.6300 hn         1 PQ2       0.543000
     98 H36          0.7270     0.5490    -0.9950 hn         1 PQ2       0.357000
     99 H46         -3.4640    -3.4900     0.2650 hc         1 PQ2       0.135700
    100 H47         -2.4010     2.5880     2.0170 hc         1 PQ2       0.100700
    101 H48          2.8780     0.0520    -3.2800 hc         1 PQ2       0.021700
    102 H45          0.8700    -1.4410    -2.5590 hn         1 PQ2       0.300000
@<TRIPOS>BOND
     1     1     4 2   
     2     1    16 1   
     3     2     6 1   
     4     2    18 1   
     5     2   102 1   
     6     3     7 1   
     7     3    39 2   
     8     3    45 1   
     9     4     8 1   
    10     4    40 1   
    11     5     9 2   
    12     5    41 1   
    13     5    46 1   
    14     6    10 2   
    15     6    42 1   
    16     7    11 1   
    17     7    31 1   
    18     7    43 1   
    19     8    12 1   
    20     8    32 1   
    21     8    44 1   
    22     9    13 1   
    23     9    33 1   
    24    10    14 1   
    25    10    22 1   
    26    11    15 1   
    27    11    19 1   
    28    11    99 1   
    29    12    16 1   
    30    12    20 1   
    31    12   100 1   
    32    13    17 2   
    33    13    21 1   
    34    14    18 2   
    35    14    34 1   
    36    15    40 2   
    37    15    45 1   
    38    16    41 2   
    39    17    42 1   
    40    17    46 1   
    41    18    39 1   
    42    19    23 1   
    43    19    63 1   
    44    19    64 1   
    45    20    24 1   
    46    20    65 1   
    47    20    66 1   
    48    21    25 1   
    49    21    67 1   
    50    21    68 1   
    51    22    26 1   
    52    22    69 1   
    53    22    70 1   
    54    23    27 1   
    55    23    71 1   
    56    23    72 1   
    57    24    28 1   
    58    24    73 1   
    59    24    74 1   
    60    25    29 1   
    61    25    75 1   
    62    25    76 1   
    63    26    30 1   
    64    26    77 1   
    65    26    78 1   
    66    27    47 1   
    67    27    51 1   
    68    28    48 1   
    69    28    52 1   
    70    29    49 1   
    71    29    53 1   
    72    30    50 1   
    73    30    54 1   
    74    31    36 1   
    75    31    79 1   
    76    31    80 1   
    77    32    37 1   
    78    32    81 1   
    79    32    82 1   
    80    33    38 1   
    81    33    83 1   
    82    33    84 1   
    83    34    35 1   
    84    34    85 1   
    85    34    86 1   
    86    35    58 1   
    87    35    62 1   
    88    36    55 1   
    89    36    59 1   
    90    37    56 1   
    91    37    60 1   
    92    38    57 1   
    93    38    61 1   
    94    39    87 1   
    95    40    88 1   
    96    41    89 1   
    97    42    90 1   
    98    42   101 1   
    99    43    91 1   
   100    43    92 1   
   101    43    93 1   
   102    44    94 1   
   103    44    95 1   
   104    44    96 1   
   105    45    97 1   
   106    46    98 1   
@<TRIPOS>SUBSTRUCTURE
     1 PQ2         1 TEMP              0 ****  ****    0 ROOT
