@<TRIPOS>MOLECULE
PQ2
  102   106     1     0     0
SMALL
No Charge or Current Charge


@<TRIPOS>ATOM
      1 NB          -1.3400     0.7520     0.1480 ne         1 PQ2      -0.635300
      2 ND           1.7910    -1.8470    -2.1350 na         1 PQ2      -0.139000
      3 C1A         -1.1040    -3.3210    -1.3160 c2         1 PQ2       0.148800
      4 C1B         -2.5650     0.4300     0.4450 cf         1 PQ2       0.543600
      5 C1C          1.2770     2.4100    -0.4330 cc         1 PQ2      -0.129800
      6 C1D          2.9470    -1.3390    -1.5630 cc         1 PQ2      -0.211300
      7 C2A         -2.4120    -3.9300    -1.8350 c5         1 PQ2       0.010200
      8 C2B         -3.3880     1.7160     0.7700 c5         1 PQ2      -0.100300
      9 C2C          2.3420     3.2500    -0.7130 cd         1 PQ2      -0.083300
     10 C2D          3.2960    -2.2060    -0.5550 cd         1 PQ2      -0.102300
     11 C3A         -3.4400    -3.2400    -0.8130 c5         1 PQ2      -0.058500
     12 C3B         -2.2360     2.7690     1.1010 c5         1 PQ2      -0.047500
     13 C3C          3.3410     2.4660    -1.3770 cd         1 PQ2      -0.142300
     14 C3D          2.2880    -3.2160    -0.4710 cd         1 PQ2      -0.061300
     15 C4A         -2.6910    -1.9690    -0.3590 c2         1 PQ2       0.186800
     16 C4B         -1.0410     2.0950     0.3860 ce         1 PQ2       0.063400
     17 C4C          2.8970     1.1690    -1.4610 cc         1 PQ2      -0.187300
     18 C4D          1.3410    -2.9540    -1.4370 cc         1 PQ2      -0.144800
     19 CAA         -4.9070    -3.0770    -1.3250 c3         1 PQ2      -0.027400
     20 CAB         -2.5260     4.2790     0.7750 c3         1 PQ2      -0.043400
     21 CAC          4.6660     2.9540    -1.9360 c3         1 PQ2       0.039900
     22 CAD          4.5410    -2.0960     0.3060 c3         1 PQ2       0.027900
     23 CBA         -6.0060    -3.1100    -0.2290 c3         1 PQ2      -0.204400
     24 CBB         -3.6790     4.9470     1.5740 c3         1 PQ2      -0.192400
     25 CBC          5.8130     2.9200    -0.9060 c3         1 PQ2      -0.208400
     26 CBD          4.4750    -0.9570     1.3500 c3         1 PQ2      -0.209400
     27 CCA         -7.3930    -2.9100    -0.8590 c          1 PQ2       0.713000
     28 CCB         -3.7110     6.4630     1.3040 c          1 PQ2       0.707000
     29 CCC          7.1160     3.3900    -1.5570 c          1 PQ2       0.725000
     30 CCD          5.7930    -0.8800     2.1290 c          1 PQ2       0.727000
     31 CDA         -2.4760    -5.4980    -1.8620 c3         1 PQ2      -0.181400
     32 CDB         -4.4050     1.4820     1.9500 c3         1 PQ2      -0.186400
     33 CDC          2.4410     4.7480    -0.4230 c3         1 PQ2      -0.128100
     34 CDD          2.2660    -4.4000     0.4830 c3         1 PQ2      -0.130100
     35 CDE          1.8930    -4.0230     1.9390 c          1 PQ2       0.730000
     36 CEA         -2.1140    -6.1620    -0.5150 c          1 PQ2       0.718000
     37 CEB         -3.7470     0.8660     3.2080 c          1 PQ2       0.715000
     38 CEC          2.7270     5.0690     1.0680 c          1 PQ2       0.721000
     39 CHA          0.1130    -3.6490    -1.7950 ce         1 PQ2      -0.226200
     40 CHB         -3.2380    -0.8120     0.0610 cf         1 PQ2      -0.407600
     41 CHC          0.1040     2.8130     0.1550 cf         1 PQ2      -0.135200
     42 CHD          3.5870    -0.0540    -2.0210 c3         1 PQ2       0.086200
     43 CMA         -2.6220    -3.4300    -3.2990 c3         1 PQ2      -0.076100
     44 CMB         -4.1960     2.0810    -0.5190 c3         1 PQ2      -0.071100
     45 NA          -1.3700    -2.2380    -0.5290 nu         1 PQ2      -0.675000
     46 NC           1.6310     1.1500    -0.8820 na         1 PQ2      -0.084000
     47 O1A         -7.9960    -3.8940    -1.2600 o          1 PQ2      -0.791000
     48 O1B         -4.3720     6.8720     0.3620 o          1 PQ2      -0.785500
     49 O1C          7.3820     4.5820    -1.5350 o          1 PQ2      -0.805500
     50 O1D          6.6940    -0.1910     1.6760 o          1 PQ2      -0.787500
     51 O2A         -7.8220    -1.7720    -0.9700 o          1 PQ2      -0.791000
     52 O2B         -3.0480     7.1960     2.0220 o          1 PQ2      -0.785500
     53 O2C          7.8230     2.5610    -2.1090 o          1 PQ2      -0.805500
     54 O2D          5.9070    -1.5340     3.1540 o          1 PQ2      -0.787500
     55 O3A         -0.9630    -6.5310    -0.3420 o          1 PQ2      -0.733000
     56 O3B         -3.6730    -0.3500     3.2850 o          1 PQ2      -0.743000
     57 O3C          3.8890     5.1080     1.4450 o          1 PQ2      -0.750000
     58 O3D          0.7110    -3.9210     2.2370 o          1 PQ2      -0.742500
     59 O4A         -3.0110    -6.3670     0.2900 o          1 PQ2      -0.733000
     60 O4B         -3.3370     1.6190     4.0790 o          1 PQ2      -0.743000
     61 O4C          1.7800     5.2130     1.8280 o          1 PQ2      -0.750000
     62 O4D          2.7960    -3.8050     2.7340 o          1 PQ2      -0.742500
     63 H1          -4.9950    -2.1510    -1.9080 hc         1 PQ2       0.015200
     64 H2          -5.1380    -3.8930    -2.0190 hc         1 PQ2       0.015200
     65 H3          -1.6360     4.8750     1.0000 hc         1 PQ2       0.034200
     66 H4          -2.7050     4.4100    -0.2990 hc         1 PQ2       0.034200
     67 H5           4.9500     2.3310    -2.7930 hc         1 PQ2      -0.004300
     68 H6           4.5680     3.9660    -2.3420 hc         1 PQ2      -0.004300
     69 H7           4.7400    -3.0420     0.8220 hc         1 PQ2       0.008200
     70 H8           5.4100    -1.9290    -0.3420 hc         1 PQ2       0.008200
     71 H9          -5.9440    -4.1060     0.2240 hc         1 PQ2       0.050700
     72 H10         -5.7960    -2.2990     0.4740 hc         1 PQ2       0.050700
     73 H11         -4.6110     4.4950     1.2250 hc         1 PQ2       0.025200
     74 H12         -3.4630     4.7550     2.6320 hc         1 PQ2       0.025200
     75 H13          5.5230     3.6060    -0.1050 hc         1 PQ2       0.079200
     76 H14          5.9040     1.8770    -0.5880 hc         1 PQ2       0.079200
     77 H15          4.3240    -0.0330     0.7850 hc         1 PQ2       0.070700
     78 H16          3.6470    -1.2060     2.0230 hc         1 PQ2       0.070700
     79 H17         -3.5140    -5.7450    -2.1190 hc         1 PQ2      -0.003800
     80 H18         -1.7630    -5.8270    -2.6290 hc         1 PQ2      -0.003800
     81 H19         -4.8340     2.4570     2.2060 hc         1 PQ2       0.012700
     82 H20         -5.1620     0.7840     1.5740 hc         1 PQ2       0.012700
     83 H21          3.2620     5.1430    -1.0280 hc         1 PQ2       0.002700
     84 H22          1.4800     5.1870    -0.7190 hc         1 PQ2       0.002700
     85 H23          1.5040    -5.0820     0.0910 hc         1 PQ2      -0.000300
     86 H24          3.2670    -4.8470     0.4560 hc         1 PQ2      -0.000300
     87 H25          0.2290    -4.4730    -2.4970 ha         1 PQ2       0.172000
     88 H26         -4.3160    -0.7610     0.1260 ha         1 PQ2       0.189000
     89 H27          0.1100     3.8530     0.4550 ha         1 PQ2       0.187000
     90 H28          4.6470    -0.0440    -1.7390 hc         1 PQ2       0.021700
     91 H29         -1.8060    -3.7590    -3.9540 hc         1 PQ2       0.005033
     92 H30         -3.5540    -3.8080    -3.7330 hc         1 PQ2       0.005033
     93 H31         -2.6550    -2.3350    -3.3460 hc         1 PQ2       0.005033
     94 H32         -4.8830     1.2790    -0.8110 hc         1 PQ2       0.007367
     95 H33         -4.8070     2.9790    -0.3880 hc         1 PQ2       0.007367
     96 H34         -3.5270     2.2570    -1.3700 hc         1 PQ2       0.007367
     97 H35         -0.6900    -1.4850    -0.4360 hn         1 PQ2       0.543000
     98 H36          1.0490     0.3270    -0.7870 hn         1 PQ2       0.357000
     99 H46         -3.5220    -3.8690     0.0780 hc         1 PQ2       0.135700
    100 H47         -2.0070     2.7510     2.1710 hc         1 PQ2       0.100700
    101 H48          3.5690    -0.0070    -3.1170 hc         1 PQ2       0.021700
    102 H45          1.3140    -1.4410    -2.9330 hn         1 PQ2       0.300000
@<TRIPOS>BOND
     1     1     4 2   
     2     1    16 1   
     3     2     6 1   
     4     2    18 1   
     5     2   102 1   
     6     3     7 1   
     7     3    39 2   
     8     3    45 1   
     9     4     8 1   
    10     4    40 1   
    11     5     9 2   
    12     5    41 1   
    13     5    46 1   
    14     6    10 2   
    15     6    42 1   
    16     7    11 1   
    17     7    31 1   
    18     7    43 1   
    19     8    12 1   
    20     8    32 1   
    21     8    44 1   
    22     9    13 1   
    23     9    33 1   
    24    10    14 1   
    25    10    22 1   
    26    11    15 1   
    27    11    19 1   
    28    11    99 1   
    29    12    16 1   
    30    12    20 1   
    31    12   100 1   
    32    13    17 2   
    33    13    21 1   
    34    14    18 2   
    35    14    34 1   
    36    15    40 2   
    37    15    45 1   
    38    16    41 2   
    39    17    42 1   
    40    17    46 1   
    41    18    39 1   
    42    19    23 1   
    43    19    63 1   
    44    19    64 1   
    45    20    24 1   
    46    20    65 1   
    47    20    66 1   
    48    21    25 1   
    49    21    67 1   
    50    21    68 1   
    51    22    26 1   
    52    22    69 1   
    53    22    70 1   
    54    23    27 1   
    55    23    71 1   
    56    23    72 1   
    57    24    28 1   
    58    24    73 1   
    59    24    74 1   
    60    25    29 1   
    61    25    75 1   
    62    25    76 1   
    63    26    30 1   
    64    26    77 1   
    65    26    78 1   
    66    27    47 1   
    67    27    51 1   
    68    28    48 1   
    69    28    52 1   
    70    29    49 1   
    71    29    53 1   
    72    30    50 1   
    73    30    54 1   
    74    31    36 1   
    75    31    79 1   
    76    31    80 1   
    77    32    37 1   
    78    32    81 1   
    79    32    82 1   
    80    33    38 1   
    81    33    83 1   
    82    33    84 1   
    83    34    35 1   
    84    34    85 1   
    85    34    86 1   
    86    35    58 1   
    87    35    62 1   
    88    36    55 1   
    89    36    59 1   
    90    37    56 1   
    91    37    60 1   
    92    38    57 1   
    93    38    61 1   
    94    39    87 1   
    95    40    88 1   
    96    41    89 1   
    97    42    90 1   
    98    42   101 1   
    99    43    91 1   
   100    43    92 1   
   101    43    93 1   
   102    44    94 1   
   103    44    95 1   
   104    44    96 1   
   105    45    97 1   
   106    46    98 1   
@<TRIPOS>SUBSTRUCTURE
     1 PQ2         1 TEMP              0 ****  ****    0 ROOT
