@<TRIPOS>MOLECULE
PQ4
   21    21     1     0     0
SMALL
No Charge or Current Charge


@<TRIPOS>ATOM
      1 N           14.2500     0.5250     4.1430 nv         1 PQ4      -0.823600
      2 CA          14.6500     1.7960     3.6700 ce         1 PQ4       0.055800
      3 CB          13.7740     2.8500     3.6630 cf         1 PQ4      -0.282200
      4 CG          12.3800     2.9750     4.1410 ca         1 PQ4       0.007200
      5 CD1         11.8910     2.2470     5.2480 ca         1 PQ4      -0.128500
      6 CE1         10.5600     2.4080     5.6780 ca         1 PQ4      -0.186000
      7 CZ           9.7110     3.3030     5.0120 ca         1 PQ4       0.078100
      8 OH           8.4230     3.4620     5.4260 oh         1 PQ4      -0.515100
      9 CE2         10.1900     4.0460     3.9240 ca         1 PQ4      -0.186000
     10 CD2         11.5210     3.8870     3.4950 ca         1 PQ4      -0.128500
     11 C           16.1100     1.9190     3.1210 c          1 PQ4       0.915800
     12 O           16.5070     2.9990     2.6880 o          1 PQ4      -0.816300
     13 OXT         16.8360     0.9260     3.1290 o          1 PQ4      -0.816300
     14 H           13.2620     0.3340     4.2760 hn         1 PQ4       0.385300
     15 H2          14.8800    -0.2640     4.0080 hn         1 PQ4       0.385300
     16 HB2         14.1490     3.7800     3.2340 ha         1 PQ4       0.151000
     17 HD1         12.5430     1.5770     5.8000 ha         1 PQ4       0.132000
     18 HE1         10.2010     1.8400     6.5340 ha         1 PQ4       0.116500
     19 HH           8.2690     2.8710     6.1920 ho         1 PQ4       0.408000
     20 HE2          9.5340     4.7460     3.4120 ha         1 PQ4       0.116500
     21 HD2         11.8830     4.4670     2.6490 ha         1 PQ4       0.132000
@<TRIPOS>BOND
     1     1     2 1   
     2     1    14 1   
     3     1    15 1   
     4     2     3 2   
     5     2    11 1   
     6     3     4 1   
     7     3    16 1   
     8     4     5 ar  
     9     4    10 ar  
    10     5     6 ar  
    11     5    17 1   
    12     6     7 ar  
    13     6    18 1   
    14     7     8 1   
    15     7     9 ar  
    16     8    19 1   
    17     9    10 ar  
    18     9    20 1   
    19    10    21 1   
    20    11    12 1   
    21    11    13 1   
@<TRIPOS>SUBSTRUCTURE
     1 PQ4         1 TEMP              0 ****  ****    0 ROOT
