@<TRIPOS>MOLECULE
PQ4
   21    21     1     0     0
SMALL
bcc


@<TRIPOS>ATOM
      1 N           14.3770     0.6000     4.3490 nv         1 PQ4      -0.823600
      2 CA          14.6170     1.7990     3.7170 ce         1 PQ4       0.055800
      3 CB          13.7450     2.8240     3.6050 cf         1 PQ4      -0.282200
      4 CG          12.3820     2.9360     4.1130 ca         1 PQ4       0.007200
      5 CD1         11.8520     2.1840     5.1690 ca         1 PQ4      -0.128500
      6 CE1         10.5520     2.3640     5.6190 ca         1 PQ4      -0.186000
      7 CZ           9.7250     3.3140     5.0270 ca         1 PQ4       0.078100
      8 OH           8.4510     3.5330     5.4200 oh         1 PQ4      -0.515100
      9 CE2         10.2300     4.0870     3.9830 ca         1 PQ4      -0.186000
     10 CD2         11.5290     3.8970     3.5470 ca         1 PQ4      -0.128500
     11 C           16.0280     1.9160     3.1120 c          1 PQ4       0.915800
     12 O           16.3720     3.0220     2.6620 o          1 PQ4      -0.816300
     13 OXT         16.6990     0.8640     3.1300 o          1 PQ4      -0.816300
     14 H           13.4310     0.2510     4.3180 hn         1 PQ4       0.385300
     15 H2          15.0590    -0.0980     4.0900 hn         1 PQ4       0.385300
     16 HB2         14.1000     3.6790     3.0450 ha         1 PQ4       0.151000
     17 HD1         12.4680     1.4620     5.6890 ha         1 PQ4       0.132000
     18 HE1         10.1860     1.7630     6.4450 ha         1 PQ4       0.116500
     19 HH           8.2190     2.9470     6.1500 ho         1 PQ4       0.408000
     20 HE2          9.6030     4.8370     3.5170 ha         1 PQ4       0.116500
     21 HD2         11.9000     4.5140     2.7370 ha         1 PQ4       0.132000
@<TRIPOS>BOND
     1     1     2 1   
     2     1    14 1   
     3     1    15 1   
     4     2     3 2   
     5     2    11 1   
     6     3     4 1   
     7     3    16 1   
     8     4     5 ar  
     9     4    10 ar  
    10     5     6 ar  
    11     5    17 1   
    12     6     7 ar  
    13     6    18 1   
    14     7     8 1   
    15     7     9 ar  
    16     8    19 1   
    17     9    10 ar  
    18     9    20 1   
    19    10    21 1   
    20    11    12 1   
    21    11    13 1   
@<TRIPOS>SUBSTRUCTURE
     1 PQ4         1 TEMP              0 ****  ****    0 ROOT
