@<TRIPOS>MOLECULE
PQ5
   40    43     1     0     0
SMALL
No Charge or Current Charge


@<TRIPOS>ATOM
      1 C15         -6.9470    42.5240    30.6180 cc         1 PQ5      -0.009000
      2 C13         -5.3870    43.6980    27.7100 cd         1 PQ5      -0.194800
      3 C1          -2.6270    46.0490    25.3430 ca         1 PQ5      -0.132600
      4 C6          -2.9630    46.4590    26.6480 ca         1 PQ5       0.138100
      5 C4          -4.5010    44.5460    26.8680 ca         1 PQ5      -0.012800
      6 C3          -4.1660    44.1530    25.5590 ca         1 PQ5      -0.157000
      7 C5          -3.9350    45.7370    27.3640 ca         1 PQ5      -0.217000
      8 C2          -3.2460    44.9010    24.8010 ca         1 PQ5      -0.076000
      9 C11         -5.3390    44.3290    31.1850 cd         1 PQ5       0.632900
     10 C8          -1.7350    46.7440    29.4930 c3         1 PQ5       0.117600
     11 C9          -2.4450    46.1100    31.7650 c3         1 PQ5       0.145600
     12 C10         -3.9790    46.3710    31.8400 c3         1 PQ5       0.204800
     13 C12         -5.5800    43.7450    29.0680 cc         1 PQ5       0.410500
     14 C7          -2.3910    47.8660    28.6400 c3         1 PQ5       0.136600
     15 O3          -0.6820    46.1710    24.0480 o          1 PQ5      -0.713500
     16 C           -1.6130    46.8030    24.5280 c          1 PQ5       0.721600
     17 O           -1.8110    47.9880    24.2970 o          1 PQ5      -0.713500
     18 O1          -2.3030    47.5360    27.2270 os         1 PQ5      -0.300100
     19 O2          -1.8080    47.0910    30.9010 os         1 PQ5      -0.468000
     20 N           -4.7710    45.1350    32.1180 nu         1 PQ5      -0.942100
     21 C16         -6.3260    43.3500    31.5620 cd         1 PQ5      -0.274000
     22 N3          -6.5230    42.7690    29.3100 na         1 PQ5       0.081900
     23 N1          -4.9260    44.5340    29.9640 nc         1 PQ5      -0.742000
     24 N2          -6.9830    42.0740    28.2220 nc         1 PQ5      -0.605100
     25 C14         -6.2720    42.6660    27.2590 cd         1 PQ5       0.400500
     26 H1          -7.6920    41.7590    30.7980 h4         1 PQ5       0.149000
     27 H2          -4.5880    43.2490    25.1290 ha         1 PQ5       0.086000
     28 H3          -4.2470    46.1150    28.3230 ha         1 PQ5       0.121000
     29 H4          -2.9910    44.5740    23.7950 ha         1 PQ5       0.123000
     30 H5          -2.2260    45.7830    29.2970 h1         1 PQ5       0.059200
     31 H6          -0.6850    46.6390    29.1890 h1         1 PQ5       0.059200
     32 H7          -2.2550    45.0920    31.3990 h1         1 PQ5       0.045700
     33 H8          -2.0340    46.1720    32.7810 h1         1 PQ5       0.045700
     34 H9          -4.1610    47.1140    32.6290 h1         1 PQ5       0.060700
     35 H10         -4.3110    46.8330    30.9000 h1         1 PQ5       0.060700
     36 H11         -1.8540    48.8040    28.8310 h1         1 PQ5       0.048200
     37 H12         -3.4330    48.0200    28.9460 h1         1 PQ5       0.048200
     38 H14         -5.1470    45.0070    33.0550 hn         1 PQ5       0.491000
     39 H15         -6.5980    43.2500    32.6050 ha         1 PQ5       0.126000
     40 H16         -6.4220    42.3350    26.2390 h4         1 PQ5       0.044800
@<TRIPOS>BOND
     1     1    21 2   
     2     1    22 1   
     3     1    26 1   
     4     2     5 1   
     5     2    13 2   
     6     2    25 1   
     7     3     4 ar  
     8     3     8 ar  
     9     3    16 1   
    10     4     7 ar  
    11     4    18 1   
    12     5     6 ar  
    13     5     7 ar  
    14     6     8 ar  
    15     6    27 1   
    16     7    28 1   
    17     8    29 1   
    18     9    20 1   
    19     9    21 1   
    20     9    23 2   
    21    10    14 1   
    22    10    19 1   
    23    10    30 1   
    24    10    31 1   
    25    11    12 1   
    26    11    19 1   
    27    11    32 1   
    28    11    33 1   
    29    12    20 1   
    30    12    34 1   
    31    12    35 1   
    32    13    22 1   
    33    13    23 1   
    34    14    18 1   
    35    14    36 1   
    36    14    37 1   
    37    15    16 1   
    38    16    17 1   
    39    20    38 1   
    40    21    39 1   
    41    22    24 1   
    42    24    25 2   
    43    25    40 1   
@<TRIPOS>SUBSTRUCTURE
     1 PQ5         1 TEMP              0 ****  ****    0 ROOT
