@<TRIPOS>MOLECULE
PQ5
   40    43     1     0     0
SMALL
abcg2


@<TRIPOS>ATOM
      1 C15         -6.8480    42.6360    30.6730 cc         1 PQ5      -0.009000
      2 C13         -5.3280    43.6720    27.6860 cd         1 PQ5      -0.194800
      3 C1          -2.6260    46.0890    25.3800 ca         1 PQ5      -0.132600
      4 C6          -2.8930    46.3710    26.7280 ca         1 PQ5       0.138100
      5 C4          -4.4320    44.4840    26.8700 ca         1 PQ5      -0.012800
      6 C3          -4.1670    44.1970    25.5310 ca         1 PQ5      -0.157000
      7 C5          -3.7780    45.5770    27.4460 ca         1 PQ5      -0.217000
      8 C2          -3.2700    44.9850    24.8260 ca         1 PQ5      -0.076000
      9 C11         -5.4580    44.5090    31.2230 cd         1 PQ5       0.632900
     10 C8          -1.5650    46.7390    29.5460 c3         1 PQ5       0.117600
     11 C9          -2.6350    45.9570    31.5460 c3         1 PQ5       0.145600
     12 C10         -4.0750    46.4480    31.7400 c3         1 PQ5       0.204800
     13 C12         -5.5570    43.7970    29.0580 cc         1 PQ5       0.410500
     14 C7          -2.4120    47.6780    28.6820 c3         1 PQ5       0.136600
     15 O3          -0.9800    46.2680    23.7120 o          1 PQ5      -0.713500
     16 C           -1.7000    46.9180    24.4950 c          1 PQ5       0.721600
     17 O           -1.7700    48.1550    24.6010 o          1 PQ5      -0.713500
     18 O1          -2.2410    47.4120    27.3020 os         1 PQ5      -0.300100
     19 O2          -1.8150    46.9210    30.9210 os         1 PQ5      -0.468000
     20 N           -4.9660    45.3760    32.1220 nu         1 PQ5      -0.942100
     21 C16         -6.3760    43.4770    31.6200 cd         1 PQ5      -0.274000
     22 N3          -6.4390    42.7980    29.3900 na         1 PQ5       0.081900
     23 N1          -5.0800    44.6450    29.9710 nc         1 PQ5      -0.742000
     24 N2          -6.7980    42.0450    28.3370 nc         1 PQ5      -0.605100
     25 C14         -6.1320    42.5710    27.3260 cd         1 PQ5       0.400500
     26 H1          -7.5410    41.8310    30.8690 h4         1 PQ5       0.149000
     27 H2          -4.6370    43.3550    25.0390 ha         1 PQ5       0.086000
     28 H3          -3.9730    45.7800    28.4860 ha         1 PQ5       0.121000
     29 H4          -3.0610    44.7370    23.7930 ha         1 PQ5       0.123000
     30 H5          -1.7290    45.6960    29.2530 h1         1 PQ5       0.059200
     31 H6          -0.5070    46.9540    29.3650 h1         1 PQ5       0.059200
     32 H7          -2.6420    45.0230    30.9750 h1         1 PQ5       0.045700
     33 H8          -2.1990    45.7330    32.5240 h1         1 PQ5       0.045700
     34 H9          -4.1150    47.2080    32.5200 h1         1 PQ5       0.060700
     35 H10         -4.4420    46.9070    30.8200 h1         1 PQ5       0.060700
     36 H11         -2.0770    48.7070    28.8230 h1         1 PQ5       0.048200
     37 H12         -3.4650    47.6460    28.9760 h1         1 PQ5       0.048200
     38 H14         -5.2400    45.2850    33.0860 hn         1 PQ5       0.491000
     39 H15         -6.6880    43.3670    32.6490 ha         1 PQ5       0.126000
     40 H16         -6.2480    42.1400    26.3430 h4         1 PQ5       0.044800
@<TRIPOS>BOND
     1     1    21 2   
     2     1    22 1   
     3     1    26 1   
     4     2     5 1   
     5     2    13 2   
     6     2    25 1   
     7     3     4 ar  
     8     3     8 ar  
     9     3    16 1   
    10     4     7 ar  
    11     4    18 1   
    12     5     6 ar  
    13     5     7 ar  
    14     6     8 ar  
    15     6    27 1   
    16     7    28 1   
    17     8    29 1   
    18     9    20 1   
    19     9    21 1   
    20     9    23 2   
    21    10    14 1   
    22    10    19 1   
    23    10    30 1   
    24    10    31 1   
    25    11    12 1   
    26    11    19 1   
    27    11    32 1   
    28    11    33 1   
    29    12    20 1   
    30    12    34 1   
    31    12    35 1   
    32    13    22 1   
    33    13    23 1   
    34    14    18 1   
    35    14    36 1   
    36    14    37 1   
    37    15    16 1   
    38    16    17 1   
    39    20    38 1   
    40    21    39 1   
    41    22    24 1   
    42    24    25 2   
    43    25    40 1   
@<TRIPOS>SUBSTRUCTURE
     1 PQ5         1 TEMP              0 ****  ****    0 ROOT
