@<TRIPOS>MOLECULE
PQ6
   44    47     1     0     0
SMALL
No Charge or Current Charge


@<TRIPOS>ATOM
      1 N1           7.5830     0.1410    21.1990 ns         1 PQ6      -0.158000
      2 C4          11.1650     0.6920    23.5450 ca         1 PQ6       0.160100
      3 C5          12.5060     1.1000    23.6360 ca         1 PQ6      -0.135000
      4 C6          13.5100     0.4040    22.9450 ca         1 PQ6      -0.061000
      5 C7          13.1700    -0.7070    22.1630 ca         1 PQ6       0.090000
      6 C8          11.8330    -1.1310    22.0760 ca         1 PQ6      -0.057000
      7 C10          8.7770    -0.5700    21.2550 c          1 PQ6       0.600100
      8 C13          5.4970     1.8020    17.9570 ca         1 PQ6       0.328900
      9 C15          3.4900     2.0930    19.3190 ca         1 PQ6      -0.083000
     10 C17          3.5000     1.3970    21.6490 ca         1 PQ6      -0.100000
     11 O1           9.3820    -0.9060    20.2420 o          1 PQ6      -0.576100
     12 C1           9.3240    -0.9240    22.6830 c6         1 PQ6      -0.067700
     13 C9          10.8060    -0.4460    22.7720 ca         1 PQ6      -0.138300
     14 O           10.2340     1.4160    24.2580 os         1 PQ6      -0.346100
     15 C3           8.8350     1.2250    23.9980 c6         1 PQ6       0.157600
     16 C2           8.5240    -0.2790    23.8710 c6         1 PQ6      -0.108400
     17 C            9.2350    -2.4850    22.8050 c3         1 PQ6       0.156800
     18 N            7.8520    -3.0150    22.8650 n8         1 PQ6      -1.038200
     19 C11          6.8550     0.6950    20.1040 ca         1 PQ6      -0.053000
     20 C19          5.5110     1.1080    20.2880 ca         1 PQ6      -0.040000
     21 C18          4.8350     0.9730    21.5230 ca         1 PQ6      -0.107000
     22 C16          2.8290     1.9570    20.5500 ca         1 PQ6      -0.110000
     23 C14          4.8270     1.6700    19.1870 ca         1 PQ6      -0.079000
     24 N2           6.7800     1.4210    17.7710 nb         1 PQ6      -0.637000
     25 C12          7.4380     0.8820    18.8240 ca         1 PQ6       0.291900
     26 H1           7.1540     0.2980    22.0990 hn         1 PQ6       0.199000
     27 H2          12.7650     1.9640    24.2420 ha         1 PQ6       0.134000
     28 H3          14.5470     0.7260    23.0130 ha         1 PQ6       0.133000
     29 H4          11.6090    -1.9910    21.4520 ha         1 PQ6       0.125000
     30 H5           4.9940     2.2320    17.0910 h4         1 PQ6       0.020100
     31 H6           2.9640     2.5260    18.4710 ha         1 PQ6       0.118000
     32 H7           2.9850     1.2910    22.6020 ha         1 PQ6       0.112000
     33 H8           8.5710     1.7600    23.0750 h1         1 PQ6       0.070700
     34 H9           8.2570     1.6690    24.8220 h1         1 PQ6       0.070700
     35 H10          7.4410    -0.4350    23.7770 hc         1 PQ6       0.060700
     36 H11          8.8110    -0.7630    24.8150 hc         1 PQ6       0.060700
     37 H12          9.7710    -2.8020    23.7110 h1         1 PQ6       0.052700
     38 H13          9.7330    -2.9520    21.9440 h1         1 PQ6       0.052700
     39 H14          7.8890    -4.0410    22.9320 hn         1 PQ6       0.415500
     40 H15          7.4250    -2.7410    23.7590 hn         1 PQ6       0.415500
     41 H17          5.3220     0.5390    22.3920 ha         1 PQ6       0.116000
     42 H18          1.7960     2.2840    20.6520 ha         1 PQ6       0.116000
     43 H19          8.4740     0.6190    18.6250 h4         1 PQ6       0.050100
     44 Cl          14.4220    -1.5780    21.2870 cl         1 PQ6      -0.213000
@<TRIPOS>BOND
     1     1     7 1   
     2     1    19 1   
     3     1    26 1   
     4     2     3 ar  
     5     2    13 ar  
     6     2    14 1   
     7     3     4 ar  
     8     3    27 1   
     9     4     5 ar  
    10     4    28 1   
    11     5     6 ar  
    12     5    44 1   
    13     6    13 ar  
    14     6    29 1   
    15     7    11 2   
    16     7    12 1   
    17     8    23 ar  
    18     8    24 ar  
    19     8    30 1   
    20     9    22 ar  
    21     9    23 ar  
    22     9    31 1   
    23    10    21 ar  
    24    10    22 ar  
    25    10    32 1   
    26    12    13 1   
    27    12    16 1   
    28    12    17 1   
    29    14    15 1   
    30    15    16 1   
    31    15    33 1   
    32    15    34 1   
    33    16    35 1   
    34    16    36 1   
    35    17    18 1   
    36    17    37 1   
    37    17    38 1   
    38    18    39 1   
    39    18    40 1   
    40    19    20 ar  
    41    19    25 ar  
    42    20    21 ar  
    43    20    23 ar  
    44    21    41 1   
    45    22    42 1   
    46    24    25 ar  
    47    25    43 1   
@<TRIPOS>SUBSTRUCTURE
     1 PQ6         1 TEMP              0 ****  ****    0 ROOT
