@<TRIPOS>MOLECULE
PQ6
   44    47     1     0     0
SMALL
abcg2


@<TRIPOS>ATOM
      1 N1           7.5830     0.2380    21.1820 ns         1 PQ6      -0.158000
      2 C4          11.6480     0.4010    23.6170 ca         1 PQ6       0.160100
      3 C5          13.0370     0.2570    23.6190 ca         1 PQ6      -0.135000
      4 C6          13.6550    -0.6520    22.7780 ca         1 PQ6      -0.061000
      5 C7          12.8670    -1.4150    21.9270 ca         1 PQ6       0.090000
      6 C8          11.4890    -1.2930    21.9270 ca         1 PQ6      -0.057000
      7 C10          8.8710     0.4770    21.5460 c          1 PQ6       0.600100
      8 C13          5.4360     1.9510    18.0720 ca         1 PQ6       0.328900
      9 C15          3.2930     1.2960    19.1120 ca         1 PQ6      -0.083000
     10 C17          3.3250     0.1380    21.2230 ca         1 PQ6      -0.100000
     11 O1           9.6120     1.2720    20.9800 o          1 PQ6      -0.576100
     12 C1           9.3320    -0.2960    22.8080 c6         1 PQ6      -0.067700
     13 C9          10.8510    -0.3950    22.7850 ca         1 PQ6      -0.138300
     14 O           11.1460     1.3370    24.4680 os         1 PQ6      -0.346100
     15 C3           9.7800     1.7270    24.2550 c6         1 PQ6       0.157600
     16 C2           8.9010     0.5150    24.0530 c6         1 PQ6      -0.108400
     17 C            8.7330    -1.7240    22.9130 c3         1 PQ6       0.156800
     18 N            7.2790    -1.7130    23.1160 n8         1 PQ6      -1.038200
     19 C11          6.8550     0.8290    20.1440 ca         1 PQ6      -0.053000
     20 C19          5.4280     0.7590    20.1990 ca         1 PQ6      -0.040000
     21 C18          4.6970     0.1630    21.2550 ca         1 PQ6      -0.107000
     22 C16          2.6130     0.7050    20.1450 ca         1 PQ6      -0.110000
     23 C14          4.7070     1.3380    19.1180 ca         1 PQ6      -0.079000
     24 N2           6.7450     2.0100    18.0430 nb         1 PQ6      -0.637000
     25 C12          7.4460     1.4550    19.0640 ca         1 PQ6       0.291900
     26 H1           7.1050    -0.4420    21.7890 hn         1 PQ6       0.199000
     27 H2          13.6240     0.8790    24.2820 ha         1 PQ6       0.134000
     28 H3          14.7310    -0.7570    22.7770 ha         1 PQ6       0.133000
     29 H4          10.9070    -1.8980    21.2470 ha         1 PQ6       0.125000
     30 H5           4.8930     2.3980    17.2440 h4         1 PQ6       0.020100
     31 H6           2.7630     1.7400    18.2790 ha         1 PQ6       0.118000
     32 H7           2.7800    -0.3180    22.0400 ha         1 PQ6       0.112000
     33 H8           9.7380     2.3980    23.3920 h1         1 PQ6       0.070700
     34 H9           9.4950     2.2800    25.1470 h1         1 PQ6       0.070700
     35 H10          7.8610     0.8300    23.9660 hc         1 PQ6       0.060700
     36 H11          8.9810    -0.1280    24.9340 hc         1 PQ6       0.060700
     37 H12          9.2660    -2.2350    23.7200 h1         1 PQ6       0.052700
     38 H13          8.9260    -2.2730    21.9920 h1         1 PQ6       0.052700
     39 H14          6.8990    -2.6380    22.9500 hn         1 PQ6       0.415500
     40 H15          7.0410    -1.4620    24.0690 hn         1 PQ6       0.415500
     41 H17          5.2110    -0.2750    22.1000 ha         1 PQ6       0.116000
     42 H18          1.5310     0.6730    20.1400 ha         1 PQ6       0.116000
     43 H19          8.5190     1.5210    19.0000 h4         1 PQ6       0.050100
     44 CL          13.6300    -2.5530    20.8290 cl         1 PQ6      -0.213000
@<TRIPOS>BOND
     1     1     7 1   
     2     1    19 1   
     3     1    26 1   
     4     2     3 ar  
     5     2    13 ar  
     6     2    14 1   
     7     3     4 ar  
     8     3    27 1   
     9     4     5 ar  
    10     4    28 1   
    11     5     6 ar  
    12     5    44 1   
    13     6    13 ar  
    14     6    29 1   
    15     7    11 2   
    16     7    12 1   
    17     8    23 ar  
    18     8    24 ar  
    19     8    30 1   
    20     9    22 ar  
    21     9    23 ar  
    22     9    31 1   
    23    10    21 ar  
    24    10    22 ar  
    25    10    32 1   
    26    12    13 1   
    27    12    16 1   
    28    12    17 1   
    29    14    15 1   
    30    15    16 1   
    31    15    33 1   
    32    15    34 1   
    33    16    35 1   
    34    16    36 1   
    35    17    18 1   
    36    17    37 1   
    37    17    38 1   
    38    18    39 1   
    39    18    40 1   
    40    19    20 ar  
    41    19    25 ar  
    42    20    21 ar  
    43    20    23 ar  
    44    21    41 1   
    45    22    42 1   
    46    24    25 ar  
    47    25    43 1   
@<TRIPOS>SUBSTRUCTURE
     1 PQ6         1 TEMP              0 ****  ****    0 ROOT
