@<TRIPOS>MOLECULE
PQ7
   80    84     1     0     0
SMALL
No Charge or Current Charge


@<TRIPOS>ATOM
      1 CAA         -7.8060    -1.4870     1.6260 c3         1 PQ7       0.103900
      2 NAB         -8.7450    -1.0200     0.5870 na         1 PQ7      -0.012700
      3 CAC         -9.2010    -1.8850    -0.4100 ca         1 PQ7      -0.015500
      4 CAD        -10.0690    -1.4260    -1.4190 ca         1 PQ7      -0.227000
      5 CAE        -10.4960    -0.0860    -1.4400 ca         1 PQ7       0.427000
      6 CAF        -10.0350     0.7800    -0.4330 ca         1 PQ7      -0.227000
      7 CAG         -9.1660     0.3110     0.5700 ca         1 PQ7       0.035200
      8 NAH        -11.3690     0.3800    -2.4530 nh         1 PQ7      -0.733400
      9 NAI          7.4590     1.5040     0.7610 na         1 PQ7      -0.018700
     10 CAJ          7.9900     2.0290    -0.4190 ca         1 PQ7      -0.014500
     11 CAK          8.9260     1.2970    -1.1740 ca         1 PQ7      -0.230500
     12 CAL          9.3470     0.0210    -0.7540 ca         1 PQ7       0.434000
     13 CAM          8.8080    -0.5000     0.4360 ca         1 PQ7      -0.230500
     14 CAN          7.8720     0.2400     1.1820 ca         1 PQ7       0.036200
     15 NAO         10.2880    -0.7180    -1.5110 nh         1 PQ7      -0.740400
     16 CAP         11.0340    -1.8950    -0.9860 c5         1 PQ7       0.196800
     17 CAQ         12.1500    -2.0520    -2.0480 c5         1 PQ7      -0.093400
     18 CAR        -11.3480    -0.1980    -3.8200 c3         1 PQ7       0.182100
     19 CAS        -12.3440     1.4690    -2.1940 c3         1 PQ7       0.182100
     20 CAT         10.6460    -0.4090    -2.9220 c5         1 PQ7       0.196800
     21 CAU         11.3810    -1.7040    -3.3470 c5         1 PQ7      -0.093400
     22 CAW          5.0830     1.5820     1.5850 ca         1 PQ7      -0.156300
     23 CAX          4.3870     1.4810     2.8050 ca         1 PQ7      -0.082000
     24 CAY          3.1240     0.8650     2.8530 ca         1 PQ7      -0.102000
     25 CAZ          2.5410     0.3430     1.6840 ca         1 PQ7      -0.041300
     26 CBA          3.2320     0.4500     0.4630 ca         1 PQ7      -0.102000
     27 CBB          4.4950     1.0660     0.4120 ca         1 PQ7      -0.082000
     28 CBC          1.1710    -0.3190     1.7370 c3         1 PQ7      -0.040100
     29 CBD          0.0280     0.6990     1.5350 c3         1 PQ7      -0.073400
     30 CBE         -1.3750     0.0540     1.5870 c3         1 PQ7      -0.074400
     31 CBG         -3.8880     0.4120     1.4450 ca         1 PQ7      -0.040300
     32 CBH         -4.5590     0.2750     2.6740 ca         1 PQ7      -0.102000
     33 CBI         -5.8230    -0.3380     2.7310 ca         1 PQ7      -0.082000
     34 CBJ         -6.4320    -0.8220     1.5570 ca         1 PQ7      -0.157300
     35 CBK         -5.7560    -0.6910     0.3260 ca         1 PQ7      -0.082000
     36 CBL         -4.4930    -0.0770     0.2720 ca         1 PQ7      -0.102000
     37 HAA         -8.2630    -1.2970     2.6060 h1         1 PQ7       0.088700
     38 HAAA        -7.6780    -2.5730     1.5380 h1         1 PQ7       0.088700
     39 HAC         -8.8660    -2.9240    -0.3810 h4         1 PQ7       0.169000
     40 HAD        -10.4180    -2.1230    -2.1740 ha         1 PQ7       0.164000
     41 HAF        -10.3320     1.8230    -0.4300 ha         1 PQ7       0.164000
     42 HAG         -8.7880     0.9720     1.3510 h4         1 PQ7       0.169000
     43 HAJ          7.6570     3.0190    -0.7350 h4         1 PQ7       0.168000
     44 HAK          9.3250     1.7360    -2.0820 ha         1 PQ7       0.162000
     45 HAM          9.0980    -1.4850     0.7860 ha         1 PQ7       0.162000
     46 HAN          7.4370    -0.1560     2.1020 h4         1 PQ7       0.168000
     47 HAP         11.4550    -1.7210     0.0140 h1         1 PQ7       0.072450
     48 HAPA        10.3930    -2.7870    -0.9470 h1         1 PQ7       0.072450
     49 HAQ         12.9720    -1.3490    -1.8660 hc         1 PQ7       0.079200
     50 HAQA        12.5760    -3.0620    -2.0590 hc         1 PQ7       0.079200
     51 HAR        -12.0030    -1.0780    -3.8800 h1         1 PQ7       0.071033
     52 HARA       -11.6880     0.5360    -4.5620 h1         1 PQ7       0.071033
     53 HARB       -10.3300    -0.4990    -4.1010 h1         1 PQ7       0.071033
     54 HAS        -11.8820     2.4520    -2.3580 h1         1 PQ7       0.071033
     55 HASA       -13.2150     1.3820    -2.8570 h1         1 PQ7       0.071033
     56 HASB       -12.7140     1.4240    -1.1600 h1         1 PQ7       0.071033
     57 HAT          9.7650    -0.2230    -3.5540 h1         1 PQ7       0.072450
     58 HATA        11.3100     0.4650    -2.9810 h1         1 PQ7       0.072450
     59 HAU         12.0400    -1.5460    -4.2070 hc         1 PQ7       0.079200
     60 HAUA        10.6690    -2.4940    -3.6160 hc         1 PQ7       0.079200
     61 HAV          6.8410     2.3780     2.5610 h1         1 PQ7       0.088200
     62 HAVA         6.3430     3.2600     1.1160 h1         1 PQ7       0.088200
     63 HAX          4.8210     1.8790     3.7200 ha         1 PQ7       0.113500
     64 HAY          2.5980     0.7940     3.8030 ha         1 PQ7       0.128000
     65 HBA          2.7900     0.0580    -0.4500 ha         1 PQ7       0.128000
     66 HBB          5.0110     1.1420    -0.5430 ha         1 PQ7       0.113500
     67 HBC          1.1000    -1.0990     0.9690 hc         1 PQ7       0.056700
     68 HBCA         1.0360    -0.8260     2.7010 hc         1 PQ7       0.056700
     69 HBD          0.0990     1.4750     2.3070 hc         1 PQ7       0.046700
     70 HBDA         0.1610     1.1980     0.5670 hc         1 PQ7       0.046700
     71 HBE         -1.4460    -0.7210     0.8140 hc         1 PQ7       0.046700
     72 HBEA        -1.5070    -0.4460     2.5550 hc         1 PQ7       0.046700
     73 HBF         -2.4440     1.8540     2.1530 hc         1 PQ7       0.057700
     74 HBFA        -2.3850     1.5790     0.4220 hc         1 PQ7       0.057700
     75 HBH         -4.1000     0.6430     3.5890 ha         1 PQ7       0.129000
     76 HBI         -6.3250    -0.4360     3.6910 ha         1 PQ7       0.113500
     77 HBK         -6.2050    -1.0660    -0.5910 ha         1 PQ7       0.113500
     78 HBL         -3.9820     0.0160    -0.6840 ha         1 PQ7       0.129000
     79 CBF         -2.5180     1.0720     1.3860 c3         1 PQ7      -0.040100
     80 CAV          6.4550     2.2540     1.5410 c3         1 PQ7       0.104900
@<TRIPOS>BOND
     1     1     2 1   
     2     1    34 1   
     3     1    37 1   
     4     1    38 1   
     5     2     3 1   
     6     2     7 2   
     7     3     4 ar  
     8     3    39 1   
     9     4     5 ar  
    10     4    40 1   
    11     5     6 ar  
    12     5     8 1   
    13     6     7 ar  
    14     6    41 1   
    15     7    42 1   
    16     8    18 1   
    17     8    19 1   
    18     9    10 1   
    19     9    14 2   
    20     9    80 1   
    21    10    11 ar  
    22    10    43 1   
    23    11    12 ar  
    24    11    44 1   
    25    12    13 ar  
    26    12    15 1   
    27    13    14 ar  
    28    13    45 1   
    29    14    46 1   
    30    15    16 1   
    31    15    20 1   
    32    16    17 1   
    33    16    47 1   
    34    16    48 1   
    35    17    21 1   
    36    17    49 1   
    37    17    50 1   
    38    18    51 1   
    39    18    52 1   
    40    18    53 1   
    41    19    54 1   
    42    19    55 1   
    43    19    56 1   
    44    20    21 1   
    45    20    57 1   
    46    20    58 1   
    47    21    59 1   
    48    21    60 1   
    49    22    23 ar  
    50    22    27 ar  
    51    22    80 1   
    52    23    24 ar  
    53    23    63 1   
    54    24    25 ar  
    55    24    64 1   
    56    25    26 ar  
    57    25    28 1   
    58    26    27 ar  
    59    26    65 1   
    60    27    66 1   
    61    28    29 1   
    62    28    67 1   
    63    28    68 1   
    64    29    30 1   
    65    29    69 1   
    66    29    70 1   
    67    30    71 1   
    68    30    72 1   
    69    30    79 1   
    70    31    32 ar  
    71    31    36 ar  
    72    31    79 1   
    73    32    33 ar  
    74    32    75 1   
    75    33    34 ar  
    76    33    76 1   
    77    34    35 ar  
    78    35    36 ar  
    79    35    77 1   
    80    36    78 1   
    81    61    80 1   
    82    62    80 1   
    83    73    79 1   
    84    74    79 1   
@<TRIPOS>SUBSTRUCTURE
     1 PQ7         1 TEMP              0 ****  ****    0 ROOT
