@<TRIPOS>MOLECULE
PQ7
   80    84     1     0     0
SMALL
bcc


@<TRIPOS>ATOM
      1 CAA         -7.3910    -2.3920     0.0610 c3         1 PQ7       0.074600
      2 NAB         -8.5860    -1.5330     0.0430 na         1 PQ7      -0.034100
      3 CAC         -9.1270    -1.1430    -1.1270 ca         1 PQ7       0.017200
      4 CAD        -10.1920    -0.2990    -1.1870 ca         1 PQ7      -0.245000
      5 CAE        -10.7720     0.2080     0.0060 ca         1 PQ7       0.288600
      6 CAF        -10.1690    -0.2200     1.2180 ca         1 PQ7      -0.245000
      7 CAG         -9.1040    -1.0650     1.1940 ca         1 PQ7       0.017200
      8 NAH        -11.8180     1.0280    -0.0110 nh         1 PQ7      -0.595000
      9 NAI          7.3350     1.9160    -0.1220 na         1 PQ7      -0.040100
     10 CAJ          7.8250     1.3670    -1.2510 ca         1 PQ7       0.018200
     11 CAK          8.8610     0.4880    -1.2360 ca         1 PQ7      -0.248500
     12 CAL          9.4600     0.1100    -0.0050 ca         1 PQ7       0.295600
     13 CAM          8.9170     0.7090     1.1630 ca         1 PQ7      -0.248500
     14 CAN          7.8790     1.5810     1.0630 ca         1 PQ7       0.018200
     15 NAO         10.4670    -0.7470     0.0510 nh         1 PQ7      -0.602000
     16 CAP         11.1540    -1.1160     1.2870 c5         1 PQ7       0.196800
     17 CAQ         12.3730    -1.8860     0.7980 c5         1 PQ7      -0.093400
     18 CAR        -12.4070     1.4370    -1.2740 c3         1 PQ7       0.182100
     19 CAS        -12.3910     1.5110     1.2330 c3         1 PQ7       0.182100
     20 CAT         11.0120    -1.4430    -1.1140 c5         1 PQ7       0.196800
     21 CAU         11.8870    -2.5260    -0.4980 c5         1 PQ7      -0.093400
     22 CAW          4.8790     2.0050    -0.1400 ca         1 PQ7      -0.156300
     23 CAX          4.3110     1.6340     1.0750 ca         1 PQ7      -0.100000
     24 CAY          3.1520     0.8740     1.1060 ca         1 PQ7      -0.120000
     25 CAZ          2.5300     0.4640    -0.0720 ca         1 PQ7      -0.041300
     26 CBA          3.1030     0.8410    -1.2840 ca         1 PQ7      -0.120000
     27 CBB          4.2630     1.6010    -1.3190 ca         1 PQ7      -0.100000
     28 CBC          1.2420    -0.3080    -0.0350 c3         1 PQ7      -0.040100
     29 CBD          0.0230     0.6170    -0.0330 c3         1 PQ7      -0.073400
     30 CBE         -1.2890    -0.1550    -0.0020 c3         1 PQ7      -0.074400
     31 CBG         -3.7950    -0.0130     0.0160 ca         1 PQ7      -0.040300
     32 CBH         -4.3750    -0.4100     1.2190 ca         1 PQ7      -0.120000
     33 CBI         -5.5260    -1.1830     1.2350 ca         1 PQ7      -0.100000
     34 CBJ         -6.1280    -1.5790     0.0450 ca         1 PQ7      -0.157300
     35 CBK         -5.5540    -1.1860    -1.1590 ca         1 PQ7      -0.100000
     36 CBL         -4.4030    -0.4120    -1.1710 ca         1 PQ7      -0.120000
     37 HAA         -7.4520    -3.0180     0.9490 h1         1 PQ7       0.088700
     38 HAAA        -7.4510    -3.0510    -0.8040 h1         1 PQ7       0.088700
     39 HAC         -8.6770    -1.5400    -2.0250 h4         1 PQ7       0.187000
     40 HAD        -10.5730    -0.0430    -2.1630 ha         1 PQ7       0.182000
     41 HAF        -10.5320     0.1010     2.1820 ha         1 PQ7       0.182000
     42 HAG         -8.6360    -1.4010     2.1080 h4         1 PQ7       0.187000
     43 HAJ          7.3580     1.6680    -2.1780 h4         1 PQ7       0.186000
     44 HAK          9.2140     0.1030    -2.1810 ha         1 PQ7       0.180000
     45 HAM          9.3000     0.4880     2.1470 ha         1 PQ7       0.180000
     46 HAN          7.4490     2.0420     1.9400 h4         1 PQ7       0.186000
     47 HAP         11.4230    -0.2300     1.8630 h1         1 PQ7       0.072450
     48 HAPA        10.5040    -1.7410     1.9060 h1         1 PQ7       0.072450
     49 HAQ         13.1950    -1.1960     0.5970 hc         1 PQ7       0.079200
     50 HAQA        12.7170    -2.6120     1.5330 hc         1 PQ7       0.079200
     51 HAR        -12.7900     0.5810    -1.8310 h1         1 PQ7       0.071033
     52 HARA       -13.2350     2.1100    -1.0790 h1         1 PQ7       0.071033
     53 HARB       -11.6840     1.9650    -1.8980 h1         1 PQ7       0.071033
     54 HAS        -11.6620     2.0790     1.8130 h1         1 PQ7       0.071033
     55 HASA       -13.2260     2.1660     1.0100 h1         1 PQ7       0.071033
     56 HASB       -12.7610     0.6880     1.8460 h1         1 PQ7       0.071033
     57 HAT         10.2130    -1.8520    -1.7320 h1         1 PQ7       0.072450
     58 HATA        11.5980    -0.7510    -1.7260 h1         1 PQ7       0.072450
     59 HAU         12.6970    -2.8210    -1.1620 hc         1 PQ7       0.079200
     60 HAUA        11.2880    -3.4120    -0.2820 hc         1 PQ7       0.079200
     61 HAV          6.2240     3.4850     0.6620 h1         1 PQ7       0.088200
     62 HAVA         6.2290     3.3880    -1.0880 h1         1 PQ7       0.088200
     63 HAX          4.7700     1.9420     2.0070 ha         1 PQ7       0.131500
     64 HAY          2.7230     0.5980     2.0620 ha         1 PQ7       0.146000
     65 HBA          2.6370     0.5400    -2.2150 ha         1 PQ7       0.146000
     66 HBB          4.6850     1.8850    -2.2760 ha         1 PQ7       0.131500
     67 HBC          1.1850    -0.9770    -0.8980 hc         1 PQ7       0.056700
     68 HBCA         1.2150    -0.9420     0.8560 hc         1 PQ7       0.056700
     69 HBD          0.0780     1.2860     0.8320 hc         1 PQ7       0.046700
     70 HBDA         0.0530     1.2570    -0.9200 hc         1 PQ7       0.046700
     71 HBE         -1.3430    -0.8240    -0.8670 hc         1 PQ7       0.046700
     72 HBEA        -1.3200    -0.7960     0.8850 hc         1 PQ7       0.046700
     73 HBF         -2.4640     1.4270     0.8690 hc         1 PQ7       0.057700
     74 HBFA        -2.4790     1.4090    -0.8860 hc         1 PQ7       0.057700
     75 HBH         -3.9190    -0.1160     2.1570 ha         1 PQ7       0.147000
     76 HBI         -5.9520    -1.4830     2.1850 ha         1 PQ7       0.131500
     77 HBK         -6.0020    -1.4880    -2.0990 ha         1 PQ7       0.131500
     78 HBL         -3.9700    -0.1200    -2.1200 ha         1 PQ7       0.147000
     79 CBF         -2.5110     0.7670    -0.0010 c3         1 PQ7      -0.040100
     80 CAV          6.1560     2.7960    -0.1780 c3         1 PQ7       0.075600
@<TRIPOS>BOND
     1     1     2 1   
     2     1    34 1   
     3     1    37 1   
     4     1    38 1   
     5     2     3 1   
     6     2     7 2   
     7     3     4 ar  
     8     3    39 1   
     9     4     5 ar  
    10     4    40 1   
    11     5     6 ar  
    12     5     8 1   
    13     6     7 ar  
    14     6    41 1   
    15     7    42 1   
    16     8    18 1   
    17     8    19 1   
    18     9    10 1   
    19     9    14 2   
    20     9    80 1   
    21    10    11 ar  
    22    10    43 1   
    23    11    12 ar  
    24    11    44 1   
    25    12    13 ar  
    26    12    15 1   
    27    13    14 ar  
    28    13    45 1   
    29    14    46 1   
    30    15    16 1   
    31    15    20 1   
    32    16    17 1   
    33    16    47 1   
    34    16    48 1   
    35    17    21 1   
    36    17    49 1   
    37    17    50 1   
    38    18    51 1   
    39    18    52 1   
    40    18    53 1   
    41    19    54 1   
    42    19    55 1   
    43    19    56 1   
    44    20    21 1   
    45    20    57 1   
    46    20    58 1   
    47    21    59 1   
    48    21    60 1   
    49    22    23 ar  
    50    22    27 ar  
    51    22    80 1   
    52    23    24 ar  
    53    23    63 1   
    54    24    25 ar  
    55    24    64 1   
    56    25    26 ar  
    57    25    28 1   
    58    26    27 ar  
    59    26    65 1   
    60    27    66 1   
    61    28    29 1   
    62    28    67 1   
    63    28    68 1   
    64    29    30 1   
    65    29    69 1   
    66    29    70 1   
    67    30    71 1   
    68    30    72 1   
    69    30    79 1   
    70    31    32 ar  
    71    31    36 ar  
    72    31    79 1   
    73    32    33 ar  
    74    32    75 1   
    75    33    34 ar  
    76    33    76 1   
    77    34    35 ar  
    78    35    36 ar  
    79    35    77 1   
    80    36    78 1   
    81    61    80 1   
    82    62    80 1   
    83    73    79 1   
    84    74    79 1   
@<TRIPOS>SUBSTRUCTURE
     1 PQ7         1 TEMP              0 ****  ****    0 ROOT
