@<TRIPOS>MOLECULE
PQ8
   58    60     1     0     0
SMALL
abcg2


@<TRIPOS>ATOM
      1 C1          43.7920     3.3480     3.2500 c3         1 PQ8       0.225000
      2 C2          43.2270     4.3170     4.2800 c3         1 PQ8      -0.109767
      3 O5          45.5890     2.9250    -9.1180 o          1 PQ8      -0.715000
      4 C7          46.1240     1.2790    -1.8050 c3         1 PQ8       0.159600
      5 C8          47.5420     1.0120    -2.2400 c3         1 PQ8       0.154600
      6 C9          42.5010     5.3970    -0.9360 cc         1 PQ8       0.504900
      7 C10         41.9680     5.6870    -3.1320 cd         1 PQ8       0.380500
      8 C11         41.9690     5.5970    -4.5220 cc         1 PQ8      -0.164800
      9 C12         42.8730     4.8290    -5.3700 ca         1 PQ8      -0.015800
     10 C13         42.6500     4.6970    -6.7420 ca         1 PQ8      -0.161000
     11 C14         43.5390     3.9750    -7.5180 ca         1 PQ8      -0.072000
     12 C15         44.6570     3.3240    -6.9960 ca         1 PQ8      -0.138600
     13 C16         45.5420     2.5160    -7.9400 c          1 PQ8       0.721600
     14 N           43.3900     4.8250    -0.0250 n          1 PQ8      -0.394300
     15 C           42.9560     4.4520     1.2380 c          1 PQ8       0.662100
     16 O           41.8070     4.5350     1.5990 o          1 PQ8      -0.533000
     17 N3          40.9350     6.5330    -2.8020 na         1 PQ8       0.098900
     18 O4          46.1150     1.5150    -7.4740 o          1 PQ8      -0.715000
     19 C17         44.8730     3.4580    -5.6170 ca         1 PQ8       0.147100
     20 C18         44.0000     4.2080    -4.8330 ca         1 PQ8      -0.222000
     21 C19         40.8960     6.4270    -4.8950 cc         1 PQ8       0.386500
     22 N2          40.2770     6.9890    -3.8710 nd         1 PQ8      -0.590100
     23 N1          42.7280     5.1250    -2.1890 nd         1 PQ8      -0.693000
     24 C20         40.6920     6.8480    -1.5100 cd         1 PQ8      -0.039000
     25 C21         41.4620     6.2950    -0.5410 cc         1 PQ8      -0.210000
     26 O1          43.9640     4.0020     1.9560 os         1 PQ8      -0.460100
     27 C4          42.9380     2.0970     3.1000 c3         1 PQ8      -0.109767
     28 C3          45.2160     2.9640     3.6260 c3         1 PQ8      -0.109767
     29 C5          44.6960     4.3930    -0.5300 c3         1 PQ8       0.115000
     30 C6          44.6910     2.9360    -0.9730 c3         1 PQ8       0.138600
     31 O2          45.9530     2.6490    -1.5220 os         1 PQ8      -0.454000
     32 O3          48.4130     1.2590    -1.1610 oh         1 PQ8      -0.725000
     33 H1          43.2910     3.8580     5.2670 hc         1 PQ8       0.050811
     34 H2          43.8090     5.2390     4.3070 hc         1 PQ8       0.050811
     35 H3          42.1840     4.5650     4.0960 hc         1 PQ8       0.050811
     36 H4          45.4450     0.9540    -2.6050 h1         1 PQ8       0.034200
     37 H5          45.8890     0.6710    -0.9200 h1         1 PQ8       0.034200
     38 H6          47.5850    -0.0330    -2.5750 h1         1 PQ8       0.042700
     39 H7          47.7870     1.6310    -3.1130 h1         1 PQ8       0.042700
     40 H8          41.7870     5.1550    -7.2090 ha         1 PQ8       0.087000
     41 H9          43.3570     3.8990    -8.5820 ha         1 PQ8       0.127000
     42 H10         45.9850     3.1400    -4.1080 ho         1 PQ8       0.437000
     43 H12         44.2070     4.3060    -3.7740 ha         1 PQ8       0.111000
     44 H13         40.5510     6.6420    -5.8960 h4         1 PQ8       0.048800
     45 H14         39.8930     7.5500    -1.3170 h4         1 PQ8       0.153000
     46 H15         41.2890     6.5710     0.4850 ha         1 PQ8       0.152000
     47 H16         42.9590     1.5400     4.0370 hc         1 PQ8       0.050811
     48 H17         41.8980     2.3210     2.8720 hc         1 PQ8       0.050811
     49 H18         43.3370     1.4460     2.3210 hc         1 PQ8       0.050811
     50 H19         45.2130     2.4480     4.5850 hc         1 PQ8       0.050811
     51 H20         45.6550     2.2930     2.8850 hc         1 PQ8       0.050811
     52 H21         45.8540     3.8440     3.7190 hc         1 PQ8       0.050811
     53 H22         45.4480     4.5560     0.2390 h1         1 PQ8       0.077200
     54 H23         44.9530     5.0310    -1.3720 h1         1 PQ8       0.077200
     55 H24         43.8940     2.7690    -1.7080 h1         1 PQ8       0.034200
     56 H25         44.4860     2.2810    -0.1150 h1         1 PQ8       0.034200
     57 H26         49.3120     1.0900    -1.4560 ho         1 PQ8       0.497000
     58 O6          45.9580     2.8960    -5.0420 oh         1 PQ8      -0.505100
@<TRIPOS>BOND
     1     1     2 1   
     2     1    26 1   
     3     1    27 1   
     4     1    28 1   
     5     2    33 1   
     6     2    34 1   
     7     2    35 1   
     8     3    13 1   
     9     4     5 1   
    10     4    31 1   
    11     4    36 1   
    12     4    37 1   
    13     5    32 1   
    14     5    38 1   
    15     5    39 1   
    16     6    14 1   
    17     6    23 2   
    18     6    25 1   
    19     7     8 2   
    20     7    17 1   
    21     7    23 1   
    22     8     9 1   
    23     8    21 1   
    24     9    10 ar  
    25     9    20 ar  
    26    10    11 ar  
    27    10    40 1   
    28    11    12 ar  
    29    11    41 1   
    30    12    13 1   
    31    12    19 ar  
    32    13    18 1   
    33    14    15 1   
    34    14    29 1   
    35    15    16 2   
    36    15    26 1   
    37    17    22 1   
    38    17    24 1   
    39    19    20 ar  
    40    19    58 1   
    41    20    43 1   
    42    21    22 2   
    43    21    44 1   
    44    24    25 2   
    45    24    45 1   
    46    25    46 1   
    47    27    47 1   
    48    27    48 1   
    49    27    49 1   
    50    28    50 1   
    51    28    51 1   
    52    28    52 1   
    53    29    30 1   
    54    29    53 1   
    55    29    54 1   
    56    30    31 1   
    57    30    55 1   
    58    30    56 1   
    59    32    57 1   
    60    42    58 1   
@<TRIPOS>SUBSTRUCTURE
     1 PQ8         1 TEMP              0 ****  ****    0 ROOT
