@<TRIPOS>MOLECULE
PQ8
   58    60     1     0     0
SMALL
No Charge or Current Charge


@<TRIPOS>ATOM
      1 C1          43.4710     3.1640     3.2550 c3         1 PQ8       0.225000
      2 C2          42.8880     4.2560     4.1880 c3         1 PQ8      -0.109767
      3 O5          44.9330     2.5050    -9.2850 o          1 PQ8      -0.715000
      4 C7          46.8430     1.4820    -1.6890 c3         1 PQ8       0.159600
      5 C8          48.3760     1.4020    -1.9200 c3         1 PQ8       0.154600
      6 C9          42.7390     5.4060    -1.0580 cc         1 PQ8       0.504900
      7 C10         42.1520     5.8680    -3.1350 cd         1 PQ8       0.380500
      8 C11         42.0470     5.7810    -4.4990 cc         1 PQ8      -0.164800
      9 C12         42.7370     4.8260    -5.3920 ca         1 PQ8      -0.015800
     10 C13         42.1720     4.5520    -6.6540 ca         1 PQ8      -0.161000
     11 C14         42.7870     3.6610    -7.5490 ca         1 PQ8      -0.072000
     12 C15         43.9950     3.0250    -7.2070 ca         1 PQ8      -0.138600
     13 C16         44.6350     2.0740    -8.1790 c          1 PQ8       0.721600
     14 N           43.4810     4.7500    -0.0760 n          1 PQ8      -0.394300
     15 C           42.8960     4.3380     1.1430 c          1 PQ8       0.662100
     16 O           41.6970     4.3940     1.3660 o          1 PQ8      -0.533000
     17 N3          41.2380     6.8500    -2.7800 na         1 PQ8       0.098900
     18 O4          44.7270     0.8940    -7.8690 o          1 PQ8      -0.715000
     19 C17         44.5870     3.3140    -5.9630 ca         1 PQ8       0.147100
     20 C18         43.9660     4.2040    -5.0710 ca         1 PQ8      -0.222000
     21 C19         41.0060     6.7020    -4.8220 cc         1 PQ8       0.386500
     22 N2          40.4990     7.3950    -3.8040 nd         1 PQ8      -0.590100
     23 N1          42.9420     5.0700    -2.3280 nd         1 PQ8      -0.693000
     24 C20         41.0710     7.2200    -1.4510 cd         1 PQ8      -0.039000
     25 C21         41.8660     6.4710    -0.5910 cc         1 PQ8      -0.210000
     26 O1          43.8180     3.7480     1.9780 os         1 PQ8      -0.460100
     27 C4          42.5090     1.9680     3.0380 c3         1 PQ8      -0.109767
     28 C3          44.8190     2.6590     3.8130 c3         1 PQ8      -0.109767
     29 C5          44.9090     4.4060    -0.3530 c3         1 PQ8       0.115000
     30 C6          45.1020     2.9860    -0.9300 c3         1 PQ8       0.138600
     31 O2          46.5050     2.7920    -1.1860 os         1 PQ8      -0.454000
     32 O3          49.1050     1.4240    -0.6740 oh         1 PQ8      -0.725000
     33 H1          42.8400     3.8890     5.2210 hc         1 PQ8       0.050811
     34 H2          43.5170     5.1540     4.1770 hc         1 PQ8       0.050811
     35 H3          41.8710     4.5430     3.9000 hc         1 PQ8       0.050811
     36 H4          46.3310     1.2970    -2.6430 h1         1 PQ8       0.034200
     37 H5          46.5370     0.6990    -0.9830 h1         1 PQ8       0.034200
     38 H6          48.5940     0.4740    -2.4660 h1         1 PQ8       0.042700
     39 H7          48.6820     2.2390    -2.5630 h1         1 PQ8       0.042700
     40 H8          41.2350     5.0160    -6.9510 ha         1 PQ8       0.087000
     41 H9          42.3220     3.4580    -8.5120 ha         1 PQ8       0.127000
     42 H10         46.0360     3.1220    -4.7360 ho         1 PQ8       0.437000
     43 H12         44.4750     4.4330    -4.1420 ha         1 PQ8       0.111000
     44 H13         40.6030     6.8950    -5.8070 h4         1 PQ8       0.048800
     45 H14         40.3840     8.0170    -1.1940 h4         1 PQ8       0.153000
     46 H15         41.8370     6.7030     0.4670 ha         1 PQ8       0.152000
     47 H16         42.4310     1.3700     3.9540 hc         1 PQ8       0.050811
     48 H17         41.4970     2.2960     2.7800 hc         1 PQ8       0.050811
     49 H18         42.8770     1.3140     2.2380 hc         1 PQ8       0.050811
     50 H19         44.6840     2.1870     4.7930 hc         1 PQ8       0.050811
     51 H20         45.2680     1.9200     3.1380 hc         1 PQ8       0.050811
     52 H21         45.5280     3.4880     3.9300 hc         1 PQ8       0.050811
     53 H22         45.5200     4.5220     0.5510 h1         1 PQ8       0.077200
     54 H23         45.3070     5.1250    -1.0800 h1         1 PQ8       0.077200
     55 H24         44.5220     2.8770    -1.8560 h1         1 PQ8       0.034200
     56 H25         44.7350     2.2480    -0.2050 h1         1 PQ8       0.034200
     57 H26         50.0640     1.4350    -0.9020 ho         1 PQ8       0.497000
     58 O6          45.7870     2.7690    -5.6140 oh         1 PQ8      -0.505100
@<TRIPOS>BOND
     1     1     2 1   
     2     1    26 1   
     3     1    27 1   
     4     1    28 1   
     5     2    33 1   
     6     2    34 1   
     7     2    35 1   
     8     3    13 1   
     9     4     5 1   
    10     4    31 1   
    11     4    36 1   
    12     4    37 1   
    13     5    32 1   
    14     5    38 1   
    15     5    39 1   
    16     6    14 1   
    17     6    23 2   
    18     6    25 1   
    19     7     8 2   
    20     7    17 1   
    21     7    23 1   
    22     8     9 1   
    23     8    21 1   
    24     9    10 ar  
    25     9    20 ar  
    26    10    11 ar  
    27    10    40 1   
    28    11    12 ar  
    29    11    41 1   
    30    12    13 1   
    31    12    19 ar  
    32    13    18 1   
    33    14    15 1   
    34    14    29 1   
    35    15    16 2   
    36    15    26 1   
    37    17    22 1   
    38    17    24 1   
    39    19    20 ar  
    40    19    58 1   
    41    20    43 1   
    42    21    22 2   
    43    21    44 1   
    44    24    25 2   
    45    24    45 1   
    46    25    46 1   
    47    27    47 1   
    48    27    48 1   
    49    27    49 1   
    50    28    50 1   
    51    28    51 1   
    52    28    52 1   
    53    29    30 1   
    54    29    53 1   
    55    29    54 1   
    56    30    31 1   
    57    30    55 1   
    58    30    56 1   
    59    32    57 1   
    60    42    58 1   
@<TRIPOS>SUBSTRUCTURE
     1 PQ8         1 TEMP              0 ****  ****    0 ROOT
