@<TRIPOS>MOLECULE
PQ9
  109   109     1     0     0
SMALL
bcc


@<TRIPOS>ATOM
      1 C1         -11.9450     1.3580     0.9440 c          1 PQ9       0.557500
      2 O1         -11.4060     1.4280     2.0290 o          1 PQ9      -0.495100
      3 C2         -12.0360     0.0460     0.2470 cc         1 PQ9      -0.117400
      4 C3         -12.6490    -0.0190    -0.9370 cd         1 PQ9      -0.203200
      5 C4         -13.2240     1.1650    -1.5900 c          1 PQ9       0.557500
      6 O4         -13.7660     1.0600    -2.6740 o          1 PQ9      -0.499100
      7 C5         -13.1330     2.4770    -0.8980 cc         1 PQ9      -0.139400
      8 C6         -13.7480     3.6680    -1.5580 c3         1 PQ9      -0.056900
      9 C9         -12.4420     3.8610     1.0400 c3         1 PQ9      -0.057900
     10 C10        -12.5310     2.5640     0.3020 cd         1 PQ9      -0.141400
     11 C11        -11.4050    -1.1440     0.9050 c3         1 PQ9       0.003000
     12 C12         -9.9030    -1.0670     0.8200 c2         1 PQ9      -0.175200
     13 C13         -9.1530    -1.5200    -0.1880 c2         1 PQ9      -0.103400
     14 C14         -9.7080    -2.1800    -1.4160 c3         1 PQ9      -0.058900
     15 C15         -7.6560    -1.3740    -0.1430 c3         1 PQ9      -0.039200
     16 C16         -6.9430    -2.6860     0.2200 c3         1 PQ9      -0.036200
     17 C17         -5.4540    -2.5460     0.1430 c2         1 PQ9      -0.173200
     18 C18         -4.5970    -2.3810     1.1540 c2         1 PQ9      -0.110400
     19 C19         -4.9940    -2.3390     2.6010 c3         1 PQ9      -0.056900
     20 C20         -3.1260    -2.1990     0.8870 c3         1 PQ9      -0.038200
     21 C21         -2.6670    -0.7420     1.0560 c3         1 PQ9      -0.036200
     22 C22         -1.1810    -0.6070     0.9450 c2         1 PQ9      -0.171200
     23 C23         -0.4710    -0.0640    -0.0470 c2         1 PQ9      -0.111400
     24 C24         -1.0670     0.5530    -1.2780 c3         1 PQ9      -0.055900
     25 C25          1.0340    -0.0390     0.0210 c3         1 PQ9      -0.039200
     26 C26          1.7090    -1.0150    -0.9560 c3         1 PQ9      -0.036200
     27 C27          3.1970    -0.8600    -0.9330 c2         1 PQ9      -0.172200
     28 C28          4.1120    -1.6970    -0.4370 c2         1 PQ9      -0.111400
     29 C29          3.8000    -3.0280     0.1810 c3         1 PQ9      -0.054900
     30 C30          5.5680    -1.3120    -0.4500 c3         1 PQ9      -0.038200
     31 C31          6.1130    -0.9690     0.9470 c3         1 PQ9      -0.036200
     32 C32          7.5660    -0.6100     0.8930 c2         1 PQ9      -0.172200
     33 C33          8.1070     0.6110     0.8860 c2         1 PQ9      -0.111400
     34 C34          7.3250     1.8870     0.9890 c3         1 PQ9      -0.054900
     35 C35          9.5970     0.7760     0.7350 c3         1 PQ9      -0.038200
     36 C36         10.0060     1.2040    -0.6840 c3         1 PQ9      -0.036200
     37 C37         11.4840     1.4190    -0.7980 c2         1 PQ9      -0.172200
     38 C38         12.3930     0.5790    -1.3020 c2         1 PQ9      -0.111400
     39 C39         12.0660    -0.7630    -1.8880 c3         1 PQ9      -0.055900
     40 C40         13.8540     0.9440    -1.3010 c3         1 PQ9      -0.038200
     41 C41         14.6820     0.1350    -0.2890 c3         1 PQ9      -0.035200
     42 C42         16.1380     0.4730    -0.3690 c2         1 PQ9      -0.175200
     43 C43         16.8720     1.1570     0.5130 c2         1 PQ9      -0.112400
     44 C44         16.3510     1.7210     1.8020 c3         1 PQ9      -0.055900
     45 C45         18.3290     1.4210     0.2640 c3         1 PQ9      -0.055900
     46 H3         -12.7450    -0.9590    -1.4690 ha         1 PQ9       0.155000
     47 H61        -14.0910     3.4470    -2.5640 hc         1 PQ9       0.055367
     48 H62        -14.6050     4.0240    -0.9830 hc         1 PQ9       0.055367
     49 H63        -13.0400     4.4960    -1.6140 hc         1 PQ9       0.055367
     50 H91        -11.8860     3.7690     1.9680 hc         1 PQ9       0.055367
     51 H92        -11.9570     4.6240     0.4290 hc         1 PQ9       0.055367
     52 H93        -13.4390     4.2370     1.2820 hc         1 PQ9       0.055367
     53 H111       -11.7110    -1.1940     1.9520 hc         1 PQ9       0.062200
     54 H112       -11.7830    -2.0450     0.4220 hc         1 PQ9       0.062200
     55 H12         -9.4050    -0.5720     1.6470 ha         1 PQ9       0.134000
     56 H141        -9.7690    -1.4600    -2.2370 hc         1 PQ9       0.040700
     57 H142        -9.0630    -2.9900    -1.7600 hc         1 PQ9       0.040700
     58 H143       -10.7040    -2.5960    -1.2730 hc         1 PQ9       0.040700
     59 H151        -7.2930    -1.0270    -1.1170 hc         1 PQ9       0.048200
     60 H152        -7.3740    -0.6120     0.5880 hc         1 PQ9       0.048200
     61 H161        -7.2690    -2.9980     1.2140 hc         1 PQ9       0.045700
     62 H162        -7.2590    -3.4760    -0.4680 hc         1 PQ9       0.045700
     63 H17         -5.0460    -2.5460    -0.8660 ha         1 PQ9       0.115000
     64 H191        -4.5200    -3.1540     3.1540 hc         1 PQ9       0.039700
     65 H192        -4.6640    -1.4110     3.0730 hc         1 PQ9       0.039700
     66 H193        -6.0690    -2.4150     2.7520 hc         1 PQ9       0.039700
     67 H201        -2.5480    -2.8350     1.5670 hc         1 PQ9       0.045200
     68 H202        -2.8830    -2.5270    -0.1270 hc         1 PQ9       0.045200
     69 H211        -3.1890    -0.1230     0.3250 hc         1 PQ9       0.045700
     70 H212        -2.9750    -0.3770     2.0410 hc         1 PQ9       0.045700
     71 H22         -0.6250    -1.0250     1.7820 ha         1 PQ9       0.114000
     72 H241        -0.8130     1.6150    -1.3370 hc         1 PQ9       0.039033
     73 H242        -0.6670     0.0920    -2.1840 hc         1 PQ9       0.039033
     74 H243        -2.1500     0.4680    -1.3230 hc         1 PQ9       0.039033
     75 H251         1.3920     0.9750    -0.1930 hc         1 PQ9       0.044700
     76 H252         1.3680    -0.2800     1.0340 hc         1 PQ9       0.044700
     77 H261         1.3980    -2.0310    -0.7090 hc         1 PQ9       0.045700
     78 H262         1.3490    -0.8180    -1.9710 hc         1 PQ9       0.045700
     79 H27          3.5560     0.0820    -1.3440 ha         1 PQ9       0.114000
     80 H291         4.3920    -3.8180    -0.2880 hc         1 PQ9       0.039033
     81 H292         4.0540    -3.0410     1.2440 hc         1 PQ9       0.039033
     82 H293         2.7510    -3.3070     0.0970 hc         1 PQ9       0.039033
     83 H301         6.1670    -2.1270    -0.8720 hc         1 PQ9       0.045200
     84 H302         5.7160    -0.4460    -1.0980 hc         1 PQ9       0.045200
     85 H311         5.5110    -0.1610     1.3660 hc         1 PQ9       0.045200
     86 H312         5.9840    -1.8270     1.6130 hc         1 PQ9       0.045200
     87 H32          8.2440    -1.4560     0.8020 ha         1 PQ9       0.115000
     88 H341         7.6690     2.4790     1.8400 hc         1 PQ9       0.039033
     89 H342         7.4650     2.5110     0.1040 hc         1 PQ9       0.039033
     90 H343         6.2540     1.7300     1.1050 hc         1 PQ9       0.039033
     91 H351         9.9640     1.5200     1.4510 hc         1 PQ9       0.045200
     92 H352        10.1050    -0.1620     0.9710 hc         1 PQ9       0.045200
     93 H361         9.6520     0.4480    -1.3870 hc         1 PQ9       0.045200
     94 H362         9.4930     2.1330    -0.9490 hc         1 PQ9       0.045200
     95 H37         11.8440     2.3590    -0.3870 ha         1 PQ9       0.115000
     96 H391        12.4290    -0.8330    -2.9170 hc         1 PQ9       0.039367
     97 H392        12.5540    -1.5680    -1.3340 hc         1 PQ9       0.039367
     98 H393        11.0000    -0.9810    -1.8980 hc         1 PQ9       0.039367
     99 H401        14.2690     0.7840    -2.3030 hc         1 PQ9       0.044700
    100 H402        13.9760     2.0070    -1.0780 hc         1 PQ9       0.044700
    101 H411        14.2830     0.3090     0.7120 hc         1 PQ9       0.045200
    102 H412        14.5590    -0.9330    -0.4880 hc         1 PQ9       0.045200
    103 H42         16.6360     0.1300    -1.2740 ha         1 PQ9       0.114000
    104 H441        16.8850     1.2910     2.6540 hc         1 PQ9       0.038533
    105 H442        16.5220     2.7990     1.8440 hc         1 PQ9       0.038533
    106 H443        15.2880     1.5480     1.9540 hc         1 PQ9       0.038533
    107 H451        18.6720     0.9770    -0.6690 hc         1 PQ9       0.038533
    108 H452        18.5320     2.4950     0.2240 hc         1 PQ9       0.038533
    109 H453        18.9440     1.0210     1.0750 hc         1 PQ9       0.038533
@<TRIPOS>BOND
     1     1     2 2   
     2     1     3 1   
     3     1    10 1   
     4     3     4 2   
     5     3    11 1   
     6     4     5 1   
     7     4    46 1   
     8     5     6 2   
     9     5     7 1   
    10     7     8 1   
    11     7    10 2   
    12     8    47 1   
    13     8    48 1   
    14     8    49 1   
    15     9    10 1   
    16     9    50 1   
    17     9    51 1   
    18     9    52 1   
    19    11    12 1   
    20    11    53 1   
    21    11    54 1   
    22    12    13 2   
    23    12    55 1   
    24    13    14 1   
    25    13    15 1   
    26    14    56 1   
    27    14    57 1   
    28    14    58 1   
    29    15    16 1   
    30    15    59 1   
    31    15    60 1   
    32    16    17 1   
    33    16    61 1   
    34    16    62 1   
    35    17    18 2   
    36    17    63 1   
    37    18    19 1   
    38    18    20 1   
    39    19    64 1   
    40    19    65 1   
    41    19    66 1   
    42    20    21 1   
    43    20    67 1   
    44    20    68 1   
    45    21    22 1   
    46    21    69 1   
    47    21    70 1   
    48    22    23 2   
    49    22    71 1   
    50    23    24 1   
    51    23    25 1   
    52    24    72 1   
    53    24    73 1   
    54    24    74 1   
    55    25    26 1   
    56    25    75 1   
    57    25    76 1   
    58    26    27 1   
    59    26    77 1   
    60    26    78 1   
    61    27    28 2   
    62    27    79 1   
    63    28    29 1   
    64    28    30 1   
    65    29    80 1   
    66    29    81 1   
    67    29    82 1   
    68    30    31 1   
    69    30    83 1   
    70    30    84 1   
    71    31    32 1   
    72    31    85 1   
    73    31    86 1   
    74    32    33 2   
    75    32    87 1   
    76    33    34 1   
    77    33    35 1   
    78    34    88 1   
    79    34    89 1   
    80    34    90 1   
    81    35    36 1   
    82    35    91 1   
    83    35    92 1   
    84    36    37 1   
    85    36    93 1   
    86    36    94 1   
    87    37    38 2   
    88    37    95 1   
    89    38    39 1   
    90    38    40 1   
    91    39    96 1   
    92    39    97 1   
    93    39    98 1   
    94    40    41 1   
    95    40    99 1   
    96    40   100 1   
    97    41    42 1   
    98    41   101 1   
    99    41   102 1   
   100    42    43 2   
   101    42   103 1   
   102    43    44 1   
   103    43    45 1   
   104    44   104 1   
   105    44   105 1   
   106    44   106 1   
   107    45   107 1   
   108    45   108 1   
   109    45   109 1   
@<TRIPOS>SUBSTRUCTURE
     1 PQ9         1 TEMP              0 ****  ****    0 ROOT
