@<TRIPOS>MOLECULE
PQ9
  109   109     1     0     0
SMALL
No Charge or Current Charge


@<TRIPOS>ATOM
      1 C1         -12.1010     0.5540     1.6690 c          1 PQ9       0.557500
      2 O1         -11.5290    -0.0680     2.5580 o          1 PQ9      -0.495100
      3 C2         -12.1430     0.0490     0.2650 cc         1 PQ9      -0.117400
      4 C3         -12.7940     0.7710    -0.7150 cd         1 PQ9      -0.253200
      5 C4         -13.4610     2.0590    -0.4700 c          1 PQ9       0.557500
      6 O4         -14.0190     2.6410    -1.3900 o          1 PQ9      -0.499100
      7 C5         -13.4150     2.5850     0.9280 cc         1 PQ9      -0.139400
      8 C6         -14.0960     3.9280     1.1380 c3         1 PQ9      -0.056900
      9 C9         -12.7450     2.3330     3.3910 c3         1 PQ9      -0.057900
     10 C10        -12.7910     1.8610     1.9440 cd         1 PQ9      -0.141400
     11 C11        -11.4540    -1.2700    -0.0100 c3         1 PQ9       0.003000
     12 C12         -9.9470    -1.1050    -0.1270 c2         1 PQ9      -0.225200
     13 C13         -9.1690    -1.2430    -1.2190 c2         1 PQ9      -0.103400
     14 C14         -9.6620    -1.5450    -2.6300 c3         1 PQ9      -0.058900
     15 C15         -7.6560    -1.0800    -1.1460 c3         1 PQ9      -0.039200
     16 C16         -6.8950    -2.4210    -1.2270 c3         1 PQ9      -0.036200
     17 C17         -5.3980    -2.2410    -1.0530 c2         1 PQ9      -0.223200
     18 C18         -4.7030    -2.2040     0.1000 c2         1 PQ9      -0.110400
     19 C19         -5.3100    -2.3210     1.4930 c3         1 PQ9      -0.056900
     20 C20         -3.1880    -2.0530     0.1210 c3         1 PQ9      -0.038200
     21 C21         -2.7250    -0.6210     0.4660 c3         1 PQ9      -0.036200
     22 C22         -1.2170    -0.4710     0.3850 c2         1 PQ9      -0.221200
     23 C23         -0.4780    -0.1740    -0.7020 c2         1 PQ9      -0.111400
     24 C24         -1.0330     0.0560    -2.1020 c3         1 PQ9      -0.055900
     25 C25          1.0340    -0.0180    -0.6260 c3         1 PQ9      -0.039200
     26 C26          1.7990    -1.2510    -1.1540 c3         1 PQ9      -0.036200
     27 C27          3.3010    -1.1110    -0.9810 c2         1 PQ9      -0.222200
     28 C28          4.0370    -1.4360     0.1000 c2         1 PQ9      -0.111400
     29 C29          3.4820    -2.0040     1.4000 c3         1 PQ9      -0.054900
     30 C30          5.5510    -1.2740     0.1180 c3         1 PQ9      -0.038200
     31 C31          6.0190    -0.0220     0.8900 c3         1 PQ9      -0.036200
     32 C32          7.5230     0.1700     0.8120 c2         1 PQ9      -0.222200
     33 C33          8.2210     0.8130    -0.1440 c2         1 PQ9      -0.111400
     34 C34          7.6140     1.4720    -1.3770 c3         1 PQ9      -0.054900
     35 C35          9.7340     0.9600    -0.0720 c3         1 PQ9      -0.038200
     36 C36         10.4850    -0.0250    -0.9940 c3         1 PQ9      -0.036200
     37 C37         11.9910     0.0750    -0.8340 c2         1 PQ9      -0.222200
     38 C38         12.7670    -0.5690     0.0600 c2         1 PQ9      -0.111400
     39 C39         12.2600    -1.5350     1.1250 c3         1 PQ9      -0.055900
     40 C40         14.2790    -0.4000     0.0800 c3         1 PQ9      -0.038200
     41 C41         14.7700     0.5460     1.1980 c3         1 PQ9      -0.035200
     42 C42         16.2700     0.7740     1.1410 c2         1 PQ9      -0.225200
     43 C43         16.9290     1.7150     0.4370 c2         1 PQ9      -0.112400
     44 C44         16.2840     2.7390    -0.4850 c3         1 PQ9      -0.055900
     45 C45         18.4390     1.8570     0.4880 c3         1 PQ9      -0.055900
     46 H3         -12.8440     0.4290    -1.7430 ha         1 PQ9       0.205000
     47 H61        -14.0890     4.5510     0.2350 hc         1 PQ9       0.055367
     48 H62        -15.1400     3.7900     1.4430 hc         1 PQ9       0.055367
     49 H63        -13.5940     4.5170     1.9140 hc         1 PQ9       0.055367
     50 H91        -12.7410     1.5000     4.1040 hc         1 PQ9       0.055367
     51 H92        -11.8490     2.9360     3.5770 hc         1 PQ9       0.055367
     52 H93        -13.6180     2.9430     3.6500 hc         1 PQ9       0.055367
     53 H111       -11.6790    -1.9840     0.7920 hc         1 PQ9       0.062200
     54 H112       -11.8840    -1.7290    -0.9050 hc         1 PQ9       0.062200
     55 H12         -9.4760    -0.8820     0.8330 ha         1 PQ9       0.184000
     56 H141        -9.2510    -0.8280    -3.3500 hc         1 PQ9       0.040700
     57 H142        -9.3570    -2.5480    -2.9500 hc         1 PQ9       0.040700
     58 H143       -10.7500    -1.4890    -2.7270 hc         1 PQ9       0.040700
     59 H151        -7.3020    -0.4110    -1.9400 hc         1 PQ9       0.048200
     60 H152        -7.3800    -0.5910    -0.2030 hc         1 PQ9       0.048200
     61 H161        -7.2950    -3.1060    -0.4700 hc         1 PQ9       0.045700
     62 H162        -7.0950    -2.8980    -2.1940 hc         1 PQ9       0.045700
     63 H17         -4.8660    -2.1480    -2.0020 ha         1 PQ9       0.165000
     64 H191        -4.9160    -3.1990     2.0200 hc         1 PQ9       0.039700
     65 H192        -5.0820    -1.4390     2.1020 hc         1 PQ9       0.039700
     66 H193        -6.4010    -2.4170     1.4760 hc         1 PQ9       0.039700
     67 H201        -2.7400    -2.7640     0.8260 hc         1 PQ9       0.045200
     68 H202        -2.7770    -2.3120    -0.8630 hc         1 PQ9       0.045200
     69 H211        -3.2240     0.0880    -0.2050 hc         1 PQ9       0.045700
     70 H212        -3.0630    -0.3600     1.4760 hc         1 PQ9       0.045700
     71 H22         -0.7210    -0.6170     1.3460 ha         1 PQ9       0.164000
     72 H241        -0.8070     1.0710    -2.4520 hc         1 PQ9       0.039033
     73 H242        -0.5990    -0.6460    -2.8230 hc         1 PQ9       0.039033
     74 H243        -2.1190    -0.0700    -2.1570 hc         1 PQ9       0.039033
     75 H251         1.3570     0.8760    -1.1750 hc         1 PQ9       0.044700
     76 H252         1.3380     0.1470     0.4150 hc         1 PQ9       0.044700
     77 H261         1.4300    -2.1470    -0.6420 hc         1 PQ9       0.045700
     78 H262         1.5680    -1.4000    -2.2150 hc         1 PQ9       0.045700
     79 H27          3.7970    -0.7090    -1.8660 ha         1 PQ9       0.164000
     80 H291         3.8980    -2.9980     1.6030 hc         1 PQ9       0.039033
     81 H292         3.7280    -1.3620     2.2530 hc         1 PQ9       0.039033
     82 H293         2.3920    -2.1060     1.3900 hc         1 PQ9       0.039033
     83 H301         6.0280    -2.1670     0.5420 hc         1 PQ9       0.045200
     84 H302         5.9270    -1.1970    -0.9100 hc         1 PQ9       0.045200
     85 H311         5.4930     0.8570     0.5000 hc         1 PQ9       0.045200
     86 H312         5.7170    -0.1050     1.9410 hc         1 PQ9       0.045200
     87 H32          8.0540    -0.2700     1.6590 ha         1 PQ9       0.165000
     88 H341         7.8230     2.5490    -1.3880 hc         1 PQ9       0.039033
     89 H342         8.0250     1.0460    -2.2990 hc         1 PQ9       0.039033
     90 H343         6.5280     1.3530    -1.4340 hc         1 PQ9       0.039033
     91 H351        10.0330     1.9880    -0.3140 hc         1 PQ9       0.045200
     92 H352        10.0740     0.7850     0.9560 hc         1 PQ9       0.045200
     93 H361        10.1380    -1.0440    -0.7880 hc         1 PQ9       0.045200
     94 H362        10.2170     0.1730    -2.0390 hc         1 PQ9       0.045200
     95 H37         12.4540     0.7470    -1.5580 ha         1 PQ9       0.165000
     96 H391        12.6870    -2.5350     0.9830 hc         1 PQ9       0.039367
     97 H392        12.5340    -1.1970     2.1310 hc         1 PQ9       0.039367
     98 H393        11.1700    -1.6440     1.1170 hc         1 PQ9       0.039367
     99 H401        14.7750    -1.3730     0.1800 hc         1 PQ9       0.044700
    100 H402        14.6190     0.0100    -0.8800 hc         1 PQ9       0.044700
    101 H411        14.2280     1.4960     1.1260 hc         1 PQ9       0.045200
    102 H412        14.5030     0.1270     2.1760 hc         1 PQ9       0.045200
    103 H42         16.8320     0.0830     1.7710 ha         1 PQ9       0.164000
    104 H441        16.4610     3.7590    -0.1230 hc         1 PQ9       0.038533
    105 H442        16.7000     2.6700    -1.4970 hc         1 PQ9       0.038533
    106 H443        15.2010     2.6090    -0.5770 hc         1 PQ9       0.038533
    107 H451        18.8960     1.1170     1.1560 hc         1 PQ9       0.038533
    108 H452        18.8820     1.7190    -0.5060 hc         1 PQ9       0.038533
    109 H453        18.7310     2.8500     0.8500 hc         1 PQ9       0.038533
@<TRIPOS>BOND
     1     1     2 2   
     2     1     3 1   
     3     1    10 1   
     4     3     4 2   
     5     3    11 1   
     6     4     5 1   
     7     4    46 1   
     8     5     6 2   
     9     5     7 1   
    10     7     8 1   
    11     7    10 2   
    12     8    47 1   
    13     8    48 1   
    14     8    49 1   
    15     9    10 1   
    16     9    50 1   
    17     9    51 1   
    18     9    52 1   
    19    11    12 1   
    20    11    53 1   
    21    11    54 1   
    22    12    13 2   
    23    12    55 1   
    24    13    14 1   
    25    13    15 1   
    26    14    56 1   
    27    14    57 1   
    28    14    58 1   
    29    15    16 1   
    30    15    59 1   
    31    15    60 1   
    32    16    17 1   
    33    16    61 1   
    34    16    62 1   
    35    17    18 2   
    36    17    63 1   
    37    18    19 1   
    38    18    20 1   
    39    19    64 1   
    40    19    65 1   
    41    19    66 1   
    42    20    21 1   
    43    20    67 1   
    44    20    68 1   
    45    21    22 1   
    46    21    69 1   
    47    21    70 1   
    48    22    23 2   
    49    22    71 1   
    50    23    24 1   
    51    23    25 1   
    52    24    72 1   
    53    24    73 1   
    54    24    74 1   
    55    25    26 1   
    56    25    75 1   
    57    25    76 1   
    58    26    27 1   
    59    26    77 1   
    60    26    78 1   
    61    27    28 2   
    62    27    79 1   
    63    28    29 1   
    64    28    30 1   
    65    29    80 1   
    66    29    81 1   
    67    29    82 1   
    68    30    31 1   
    69    30    83 1   
    70    30    84 1   
    71    31    32 1   
    72    31    85 1   
    73    31    86 1   
    74    32    33 2   
    75    32    87 1   
    76    33    34 1   
    77    33    35 1   
    78    34    88 1   
    79    34    89 1   
    80    34    90 1   
    81    35    36 1   
    82    35    91 1   
    83    35    92 1   
    84    36    37 1   
    85    36    93 1   
    86    36    94 1   
    87    37    38 2   
    88    37    95 1   
    89    38    39 1   
    90    38    40 1   
    91    39    96 1   
    92    39    97 1   
    93    39    98 1   
    94    40    41 1   
    95    40    99 1   
    96    40   100 1   
    97    41    42 1   
    98    41   101 1   
    99    41   102 1   
   100    42    43 2   
   101    42   103 1   
   102    43    44 1   
   103    43    45 1   
   104    44   104 1   
   105    44   105 1   
   106    44   106 1   
   107    45   107 1   
   108    45   108 1   
   109    45   109 1   
@<TRIPOS>SUBSTRUCTURE
     1 PQ9         1 TEMP              0 ****  ****    0 ROOT
