@<TRIPOS>MOLECULE
PQA
   49    52     1     0     0
SMALL
No Charge or Current Charge


@<TRIPOS>ATOM
      1 N1           3.2140     2.0420     0.4250 nv         1 PQA      -1.069000
      2 C2           2.7730     0.7840     0.1190 cc         1 PQA       0.327000
      3 C3           1.5280     0.3190    -0.1590 cd         1 PQA      -0.380600
      4 C4           1.6550    -1.0770    -0.3800 cd         1 PQA       0.322900
      5 N5           2.8950    -1.5260    -0.2710 nc         1 PQA      -0.518800
      6 N6           3.5640    -0.3660     0.0400 na         1 PQA       0.168000
      7 C7           4.9530    -0.3900     0.2060 ca         1 PQA      -0.009200
      8 C8           5.5330    -1.2100     1.1970 ca         1 PQA      -0.081000
      9 C9           6.9300    -1.2400     1.3640 ca         1 PQA      -0.144500
     10 C10          7.7490    -0.4540     0.5390 ca         1 PQA       0.175000
     11 F11          9.0900    -0.4840     0.7000 f          1 PQA      -0.172000
     12 C12          7.1830     0.3600    -0.4530 ca         1 PQA      -0.144500
     13 C13          5.7860     0.3920    -0.6220 ca         1 PQA      -0.081000
     14 C14          0.2950     1.1310    -0.1810 c          1 PQA       0.645300
     15 O15          0.2910     2.3160     0.1350 o          1 PQA      -0.577100
     16 C16         -0.9880     0.4560    -0.6020 ca         1 PQA      -0.117600
     17 C17         -1.0560    -0.3150    -1.7830 ca         1 PQA      -0.119000
     18 C18         -2.2620    -0.9270    -2.1620 ca         1 PQA      -0.085000
     19 C19         -3.4160    -0.7650    -1.3760 ca         1 PQA      -0.183000
     20 C20         -3.3690     0.0280    -0.2080 ca         1 PQA       0.142100
     21 O21         -4.4630     0.2330     0.6140 os         1 PQA      -0.348100
     22 C22         -5.8060    -0.1200     0.2150 c6         1 PQA       0.178300
     23 C23         -6.7390    -0.0430     1.4460 c6         1 PQA      -0.093400
     24 C24         -8.2020    -0.3390     1.0480 c6         1 PQA       0.166300
     25 N25         -8.6550     0.5760    -0.0250 n7         1 PQA      -0.872400
     26 C26         -7.8040     0.5130    -1.2360 c6         1 PQA       0.166300
     27 C27         -6.3300     0.8290    -0.8960 c6         1 PQA      -0.093400
     28 C28         -2.1560     0.6290     0.1690 ca         1 PQA      -0.103000
     29 HN11         4.1320     2.1620     0.8500 hn         1 PQA       0.491000
     30 HN12         2.5160     2.7620     0.6110 hn         1 PQA       0.491000
     31 H4           0.8710    -1.7880    -0.6070 h4         1 PQA       0.046100
     32 H8           4.9000    -1.8220     1.8380 ha         1 PQA       0.140000
     33 H9           7.3770    -1.8700     2.1290 ha         1 PQA       0.139000
     34 H12          7.8250     0.9630    -1.0910 ha         1 PQA       0.139000
     35 H13          5.3510     1.0200    -1.3980 ha         1 PQA       0.140000
     36 H17         -0.1780    -0.4350    -2.4140 ha         1 PQA       0.123000
     37 H18         -2.3030    -1.5270    -3.0690 ha         1 PQA       0.113000
     38 H19         -4.3280    -1.2590    -1.6940 ha         1 PQA       0.117000
     39 H22         -5.8160    -1.1590    -0.1430 h1         1 PQA       0.036700
     40 H231        -6.4110    -0.7620     2.2090 hc         1 PQA       0.062200
     41 H232        -6.6760     0.9540     1.9020 hc         1 PQA       0.062200
     42 H241        -8.2860    -1.3800     0.7010 h1         1 PQA       0.030450
     43 H242        -8.8540    -0.2260     1.9260 h1         1 PQA       0.030450
     44 H25         -9.6210     0.3310    -0.2850 hn         1 PQA       0.418000
     45 H261        -7.8710    -0.4930    -1.6790 h1         1 PQA       0.030450
     46 H262        -8.1730     1.2310    -1.9830 h1         1 PQA       0.030450
     47 H271        -6.2460     1.8720    -0.5640 hc         1 PQA       0.062200
     48 H272        -5.7210     0.7390    -1.8040 hc         1 PQA       0.062200
     49 H28         -2.1250     1.2330     1.0730 ha         1 PQA       0.141000
@<TRIPOS>BOND
     1     1     2 1   
     2     1    29 1   
     3     1    30 1   
     4     2     3 2   
     5     2     6 1   
     6     3     4 1   
     7     3    14 1   
     8     4     5 2   
     9     4    31 1   
    10     5     6 1   
    11     6     7 1   
    12     7     8 ar  
    13     7    13 ar  
    14     8     9 ar  
    15     8    32 1   
    16     9    10 ar  
    17     9    33 1   
    18    10    11 1   
    19    10    12 ar  
    20    12    13 ar  
    21    12    34 1   
    22    13    35 1   
    23    14    15 2   
    24    14    16 1   
    25    16    17 ar  
    26    16    28 ar  
    27    17    18 ar  
    28    17    36 1   
    29    18    19 ar  
    30    18    37 1   
    31    19    20 ar  
    32    19    38 1   
    33    20    21 1   
    34    20    28 ar  
    35    21    22 1   
    36    22    23 1   
    37    22    27 1   
    38    22    39 1   
    39    23    24 1   
    40    23    40 1   
    41    23    41 1   
    42    24    25 1   
    43    24    42 1   
    44    24    43 1   
    45    25    26 1   
    46    25    44 1   
    47    26    27 1   
    48    26    45 1   
    49    26    46 1   
    50    27    47 1   
    51    27    48 1   
    52    28    49 1   
@<TRIPOS>SUBSTRUCTURE
     1 PQA         1 TEMP              0 ****  ****    0 ROOT
