@<TRIPOS>MOLECULE
PQA
   49    52     1     0     0
SMALL
abcg2


@<TRIPOS>ATOM
      1 N1           3.1070     1.9560     0.3890 nv         1 PQA      -1.069000
      2 C2           2.7370     0.6860     0.1180 cc         1 PQA       0.327000
      3 C3           1.4620     0.1660    -0.1400 cd         1 PQA      -0.380600
      4 C4           1.7020    -1.2140    -0.3600 cd         1 PQA       0.322900
      5 N5           2.9640    -1.5200    -0.2700 nc         1 PQA      -0.518800
      6 N6           3.5970    -0.3450     0.0030 na         1 PQA       0.168000
      7 C7           4.9960    -0.3280     0.1710 ca         1 PQA      -0.009200
      8 C8           5.6010    -1.3000     0.9590 ca         1 PQA      -0.081000
      9 C9           6.9760    -1.3060     1.1190 ca         1 PQA      -0.144500
     10 C10          7.7240    -0.3240     0.4960 ca         1 PQA       0.175000
     11 F11          9.0540    -0.3230     0.6570 f          1 PQA      -0.172000
     12 C12          7.1440     0.6500    -0.2910 ca         1 PQA      -0.144500
     13 C13          5.7680     0.6380    -0.4630 ca         1 PQA      -0.081000
     14 C14          0.2360     0.9300    -0.0610 c          1 PQA       0.645300
     15 O15          0.2250     2.0680     0.3850 o          1 PQA      -0.577100
     16 C16         -1.0350     0.2930    -0.5150 ca         1 PQA      -0.117600
     17 C17         -1.0780    -0.5290    -1.6400 ca         1 PQA      -0.119000
     18 C18         -2.2900    -1.0600    -2.0420 ca         1 PQA      -0.085000
     19 C19         -3.4580    -0.7980    -1.3380 ca         1 PQA      -0.183000
     20 C20         -3.4180     0.0320    -0.2190 ca         1 PQA       0.142100
     21 O21         -4.4780     0.3490     0.5470 os         1 PQA      -0.348100
     22 C22         -5.7900    -0.0280     0.1640 c6         1 PQA       0.178300
     23 C23         -6.6810     0.1340     1.3850 c6         1 PQA      -0.093400
     24 C24         -8.1230    -0.1950     1.0230 c6         1 PQA       0.166300
     25 N25         -8.5630     0.6540    -0.0640 n7         1 PQA      -0.872400
     26 C26         -7.7760     0.4590    -1.2630 c6         1 PQA       0.166300
     27 C27         -6.3220     0.8180    -0.9870 c6         1 PQA      -0.093400
     28 C28         -2.2020     0.5850     0.1750 ca         1 PQA      -0.103000
     29 HN11         3.9620     2.1000     0.9020 hn         1 PQA       0.491000
     30 HN12         2.3450     2.5530     0.6740 hn         1 PQA       0.491000
     31 H4           0.9770    -1.9870    -0.5630 h4         1 PQA       0.046100
     32 H8           4.9990    -2.0550     1.4440 ha         1 PQA       0.140000
     33 H9           7.4550    -2.0590     1.7280 ha         1 PQA       0.139000
     34 H12          7.7520     1.3980    -0.7780 ha         1 PQA       0.139000
     35 H13          5.3080     1.3760    -1.1060 ha         1 PQA       0.140000
     36 H17         -0.1840    -0.7210    -2.2180 ha         1 PQA       0.123000
     37 H18         -2.3380    -1.6880    -2.9210 ha         1 PQA       0.113000
     38 H19         -4.3810    -1.2440    -1.6810 ha         1 PQA       0.117000
     39 H22         -5.8060    -1.0890    -0.1260 h1         1 PQA       0.036700
     40 H231        -6.3380    -0.5170     2.1920 hc         1 PQA       0.062200
     41 H232        -6.6250     1.1650     1.7430 hc         1 PQA       0.062200
     42 H241        -8.1970    -1.2710     0.7820 h1         1 PQA       0.030450
     43 H242        -8.7640    -0.0240     1.8890 h1         1 PQA       0.030450
     44 H25         -9.5420     0.4980    -0.2560 hn         1 PQA       0.418000
     45 H261        -7.8230    -0.5780    -1.6420 h1         1 PQA       0.030450
     46 H262        -8.1670     1.1000    -2.0550 h1         1 PQA       0.030450
     47 H271        -6.2540     1.8740    -0.7130 hc         1 PQA       0.062200
     48 H272        -5.7270     0.6780    -1.8920 hc         1 PQA       0.062200
     49 H28         -2.1760     1.2410     1.0360 ha         1 PQA       0.141000
@<TRIPOS>BOND
     1     1     2 1   
     2     1    29 1   
     3     1    30 1   
     4     2     3 2   
     5     2     6 1   
     6     3     4 1   
     7     3    14 1   
     8     4     5 2   
     9     4    31 1   
    10     5     6 1   
    11     6     7 1   
    12     7     8 ar  
    13     7    13 ar  
    14     8     9 ar  
    15     8    32 1   
    16     9    10 ar  
    17     9    33 1   
    18    10    11 1   
    19    10    12 ar  
    20    12    13 ar  
    21    12    34 1   
    22    13    35 1   
    23    14    15 2   
    24    14    16 1   
    25    16    17 ar  
    26    16    28 ar  
    27    17    18 ar  
    28    17    36 1   
    29    18    19 ar  
    30    18    37 1   
    31    19    20 ar  
    32    19    38 1   
    33    20    21 1   
    34    20    28 ar  
    35    21    22 1   
    36    22    23 1   
    37    22    27 1   
    38    22    39 1   
    39    23    24 1   
    40    23    40 1   
    41    23    41 1   
    42    24    25 1   
    43    24    42 1   
    44    24    43 1   
    45    25    26 1   
    46    25    44 1   
    47    26    27 1   
    48    26    45 1   
    49    26    46 1   
    50    27    47 1   
    51    27    48 1   
    52    28    49 1   
@<TRIPOS>SUBSTRUCTURE
     1 PQA         1 TEMP              0 ****  ****    0 ROOT
