@<TRIPOS>MOLECULE
PQB
   45    47     1     0     0
SMALL
abcg2


@<TRIPOS>ATOM
      1 N1           2.8500     2.0040    -0.2880 nv         1 PQB      -1.080000
      2 C2           2.5120     0.7080    -0.1840 cc         1 PQB       0.342000
      3 C3           1.2540     0.0940    -0.3080 cd         1 PQB      -0.386600
      4 C4           1.5310    -1.2840    -0.1130 cd         1 PQB       0.323900
      5 N5           2.7950    -1.5100     0.0940 nc         1 PQB      -0.518800
      6 N6           3.3940    -0.2870     0.0310 na         1 PQB       0.161000
      7 C7           4.7880    -0.1780     0.2190 ca         1 PQB      -0.010200
      8 C8           5.5680     0.4960    -0.7130 ca         1 PQB      -0.078500
      9 C9           6.9370     0.6060    -0.5210 ca         1 PQB      -0.146000
     10 C10          7.5000     0.0150     0.5930 ca         1 PQB       0.177000
     11 F11          8.8230     0.1140     0.7780 f          1 PQB      -0.172000
     12 C12          6.7450    -0.6760     1.5220 ca         1 PQB      -0.146000
     13 C13          5.3750    -0.7650     1.3340 ca         1 PQB      -0.078500
     14 C14          0.0100     0.7910    -0.5030 c          1 PQB       0.643300
     15 O15         -0.0640     2.0140    -0.4340 o          1 PQB      -0.579100
     16 C16         -1.2190    -0.0080    -0.7820 ca         1 PQB      -0.115600
     17 C17         -1.1990    -1.0890    -1.6650 ca         1 PQB      -0.119000
     18 C18         -2.3770    -1.7630    -1.9360 ca         1 PQB      -0.084000
     19 C19         -3.5720    -1.3940    -1.3310 ca         1 PQB      -0.187000
     20 C20         -3.5910    -0.3150    -0.4480 ca         1 PQB       0.132100
     21 O21         -4.6900     0.1210     0.1940 os         1 PQB      -0.327100
     22 C22         -5.9190    -0.5380    -0.0390 c3         1 PQB       0.126600
     23 C23         -6.9830     0.1300     0.8170 c3         1 PQB       0.167300
     24 O25         -7.0950     1.5060     0.5500 oh         1 PQB      -0.621000
     25 C26         -8.3000    -0.6100     0.6460 c3         1 PQB       0.129600
     26 O27         -9.2470    -0.0650     1.5320 oh         1 PQB      -0.640000
     27 C28         -2.4130     0.3850    -0.1920 ca         1 PQB      -0.098000
     28 HN11         3.7240     2.3180     0.1050 hn         1 PQB       0.498000
     29 HN12         2.0890     2.6600    -0.2210 hn         1 PQB       0.498000
     30 H4           0.8290    -2.1040    -0.1000 h4         1 PQB       0.046100
     31 H8           5.1180     0.9270    -1.5970 ha         1 PQB       0.139000
     32 H9           7.5530     1.1310    -1.2390 ha         1 PQB       0.139500
     33 H12          7.2140    -1.1290     2.3840 ha         1 PQB       0.139500
     34 H13          4.7660    -1.2920     2.0550 ha         1 PQB       0.139000
     35 H17         -0.2830    -1.3810    -2.1610 ha         1 PQB       0.124000
     36 H18         -2.3740    -2.5910    -2.6320 ha         1 PQB       0.113000
     37 H19         -4.4680    -1.9540    -1.5600 ha         1 PQB       0.113000
     38 H221        -6.1930    -0.4790    -1.1010 h1         1 PQB       0.035200
     39 H222        -5.8460    -1.5990     0.2260 h1         1 PQB       0.035200
     40 H23         -6.6780     0.0540     1.8660 h1         1 PQB       0.100700
     41 H25         -7.4110     1.6230    -0.3530 ho         1 PQB       0.436000
     42 H261        -8.6280    -0.5250    -0.4010 h1         1 PQB       0.019200
     43 H262        -8.1320    -1.6780     0.8390 h1         1 PQB       0.019200
     44 H27        -10.0810    -0.5210     1.3910 ho         1 PQB       0.444000
     45 H28         -2.4360     1.2290     0.4860 ha         1 PQB       0.144000
@<TRIPOS>BOND
     1     1     2 1   
     2     1    28 1   
     3     1    29 1   
     4     2     3 2   
     5     2     6 1   
     6     3     4 1   
     7     3    14 1   
     8     4     5 2   
     9     4    30 1   
    10     5     6 1   
    11     6     7 1   
    12     7     8 ar  
    13     7    13 ar  
    14     8     9 ar  
    15     8    31 1   
    16     9    10 ar  
    17     9    32 1   
    18    10    11 1   
    19    10    12 ar  
    20    12    13 ar  
    21    12    33 1   
    22    13    34 1   
    23    14    15 2   
    24    14    16 1   
    25    16    17 ar  
    26    16    27 ar  
    27    17    18 ar  
    28    17    35 1   
    29    18    19 ar  
    30    18    36 1   
    31    19    20 ar  
    32    19    37 1   
    33    20    21 1   
    34    20    27 ar  
    35    21    22 1   
    36    22    23 1   
    37    22    38 1   
    38    22    39 1   
    39    23    24 1   
    40    23    25 1   
    41    23    40 1   
    42    24    41 1   
    43    25    26 1   
    44    25    42 1   
    45    25    43 1   
    46    26    44 1   
    47    27    45 1   
@<TRIPOS>SUBSTRUCTURE
     1 PQB         1 TEMP              0 ****  ****    0 ROOT
