@<TRIPOS>MOLECULE
PQB
   45    47     1     0     0
SMALL
No Charge or Current Charge


@<TRIPOS>ATOM
      1 N1           2.9480     2.0900    -0.2740 nv         1 PQB      -1.080000
      2 C2           2.5580     0.7810    -0.2210 cc         1 PQB       0.342000
      3 C3           1.3440     0.2050    -0.4070 cd         1 PQB      -0.386600
      4 C4           1.5200    -1.1890    -0.2070 cd         1 PQB       0.323900
      5 N5           2.7640    -1.5370     0.0820 nc         1 PQB      -0.518800
      6 N6           3.3840    -0.3090     0.0720 na         1 PQB       0.161000
      7 C7           4.7610    -0.2270     0.2990 ca         1 PQB      -0.010200
      8 C8           5.6170     0.3170    -0.6830 ca         1 PQB      -0.078500
      9 C9           7.0030     0.3920    -0.4510 ca         1 PQB      -0.146000
     10 C10          7.5360    -0.0770     0.7590 ca         1 PQB       0.177000
     11 F11          8.8670    -0.0040     0.9800 f          1 PQB      -0.172000
     12 C12          6.6940    -0.6240     1.7400 ca         1 PQB      -0.146000
     13 C13          5.3080    -0.7010     1.5100 ca         1 PQB      -0.078500
     14 C14          0.0930     0.9250    -0.7180 c          1 PQB       0.643300
     15 O15          0.0420     2.1490    -0.7580 o          1 PQB      -0.579100
     16 C16         -1.1470     0.1060    -0.9830 ca         1 PQB      -0.115600
     17 C17         -1.1310    -0.9760    -1.8900 ca         1 PQB      -0.119000
     18 C18         -2.2990    -1.7170    -2.1330 ca         1 PQB      -0.084000
     19 C19         -3.4980    -1.3800    -1.4830 ca         1 PQB      -0.187000
     20 C20         -3.5320    -0.2890    -0.5880 ca         1 PQB       0.132100
     21 O21         -4.6820     0.0940     0.0730 os         1 PQB      -0.327100
     22 C22         -5.9360    -0.5950    -0.1050 c3         1 PQB       0.126600
     23 C23         -7.0120     0.0830     0.7810 c3         1 PQB       0.167300
     24 O25         -7.2730     1.4280     0.3320 oh         1 PQB      -0.621000
     25 C26         -8.3470    -0.7060     0.7770 c3         1 PQB       0.129600
     26 O27         -9.3360    -0.0160     1.5600 oh         1 PQB      -0.640000
     27 C28         -2.3600     0.4490    -0.3490 ca         1 PQB      -0.098000
     28 HN11         3.8320     2.3660     0.1490 hn         1 PQB       0.498000
     29 HN12         2.2190     2.8010    -0.3310 hn         1 PQB       0.498000
     30 H4           0.7680    -1.9670    -0.2530 h4         1 PQB       0.046100
     31 H8           5.2080     0.6750    -1.6260 ha         1 PQB       0.139000
     32 H9           7.6620     0.8110    -1.2070 ha         1 PQB       0.139500
     33 H12          7.1160    -0.9880     2.6730 ha         1 PQB       0.139500
     34 H13          4.6580    -1.1280     2.2720 ha         1 PQB       0.139000
     35 H17         -0.2160    -1.2370    -2.4180 ha         1 PQB       0.124000
     36 H18         -2.2760    -2.5510    -2.8320 ha         1 PQB       0.113000
     37 H19         -4.3860    -1.9700    -1.6910 ha         1 PQB       0.113000
     38 H221        -6.2530    -0.5620    -1.1560 h1         1 PQB       0.035200
     39 H222        -5.8370    -1.6460     0.1940 h1         1 PQB       0.035200
     40 H23         -6.6370     0.0930     1.8150 h1         1 PQB       0.100700
     41 H25         -8.1600     1.6450     0.6990 ho         1 PQB       0.436000
     42 H261        -8.6970    -0.8260    -0.2580 h1         1 PQB       0.019200
     43 H262        -8.1710    -1.7090     1.1880 h1         1 PQB       0.019200
     44 H27        -10.1440    -0.5780     1.5680 ho         1 PQB       0.444000
     45 H28         -2.3950     1.2890     0.3400 ha         1 PQB       0.144000
@<TRIPOS>BOND
     1     1     2 1   
     2     1    28 1   
     3     1    29 1   
     4     2     3 2   
     5     2     6 1   
     6     3     4 1   
     7     3    14 1   
     8     4     5 2   
     9     4    30 1   
    10     5     6 1   
    11     6     7 1   
    12     7     8 ar  
    13     7    13 ar  
    14     8     9 ar  
    15     8    31 1   
    16     9    10 ar  
    17     9    32 1   
    18    10    11 1   
    19    10    12 ar  
    20    12    13 ar  
    21    12    33 1   
    22    13    34 1   
    23    14    15 2   
    24    14    16 1   
    25    16    17 ar  
    26    16    27 ar  
    27    17    18 ar  
    28    17    35 1   
    29    18    19 ar  
    30    18    36 1   
    31    19    20 ar  
    32    19    37 1   
    33    20    21 1   
    34    20    27 ar  
    35    21    22 1   
    36    22    23 1   
    37    22    38 1   
    38    22    39 1   
    39    23    24 1   
    40    23    25 1   
    41    23    40 1   
    42    24    41 1   
    43    25    26 1   
    44    25    42 1   
    45    25    43 1   
    46    26    44 1   
    47    27    45 1   
@<TRIPOS>SUBSTRUCTURE
     1 PQB         1 TEMP              0 ****  ****    0 ROOT
