@<TRIPOS>MOLECULE
PQC
   46    50     1     0     0
SMALL
No Charge or Current Charge


@<TRIPOS>ATOM
      1 C1           3.6370    -3.4350     0.3300 ca         1 PQC      -0.093000
      2 C2           2.3130    -3.9100     0.3010 ca         1 PQC      -0.055000
      3 C3           3.8620    -2.0550     0.2120 ca         1 PQC      -0.152000
      4 C4           2.8150    -1.1640     0.0690 ca         1 PQC      -0.083800
      5 C5           3.2640     0.2090    -0.0360 cc         1 PQC      -0.133200
      6 S6           5.4540    -1.2730     0.2270 ss         1 PQC       0.111400
      7 C7           4.6490     0.3190     0.0310 cd         1 PQC      -0.014600
      8 C8           5.4370     1.5760    -0.0450 ca         1 PQC      -0.026800
      9 C9           6.8490     1.5520     0.0370 ca         1 PQC      -0.097500
     10 C10          4.7990     2.8290    -0.1990 ca         1 PQC      -0.097500
     11 C11          5.5480     4.0170    -0.2700 ca         1 PQC      -0.108000
     12 C12          6.9480     3.9740    -0.1880 ca         1 PQC      -0.104000
     13 C13          1.4770    -1.6090     0.0350 ca         1 PQC       0.128000
     14 C14          1.2430    -3.0010     0.1550 ca         1 PQC      -0.194000
     15 C15         -0.0910    -3.4450     0.1260 ca         1 PQC       0.172900
     16 N16         -1.1160    -2.5840    -0.0130 nb         1 PQC      -0.225000
     17 N17          0.4400    -0.7550    -0.1030 nb         1 PQC      -0.247000
     18 C18         -0.7960    -1.2830    -0.1310 ca         1 PQC       0.390900
     19 N19         -1.8200    -0.3500    -0.2440 nu         1 PQC      -0.930900
     20 C20         -3.2110    -0.4310    -0.4230 ca         1 PQC       0.304000
     21 C21         -4.0180     0.6300     0.0320 ca         1 PQC      -0.066000
     22 C22         -3.8240    -1.5210    -1.0760 ca         1 PQC      -0.078000
     23 C23         -5.2200    -1.5580    -1.2490 ca         1 PQC      -0.107000
     24 C24         -6.0200    -0.5040    -0.7780 ca         1 PQC      -0.049000
     25 C25         -5.4220     0.6000    -0.1350 ca         1 PQC      -0.235500
     26 S26         -6.4320     1.9640     0.4650 sy         1 PQC       1.121600
     27 O27         -7.8320     1.5540     0.5460 o          1 PQC      -0.543000
     28 O28         -5.7470     2.6740     1.5450 o          1 PQC      -0.543000
     29 N29         -6.4030     2.9950    -0.8070 n8         1 PQC      -1.004100
     30 C30          7.5970     2.7410    -0.0340 ca         1 PQC      -0.108000
     31 H1           4.4700    -4.1260     0.4420 ha         1 PQC       0.126000
     32 H2           2.1210    -4.9780     0.3920 ha         1 PQC       0.118000
     33 H5           2.5920     1.0510    -0.1540 ha         1 PQC       0.220000
     34 H9           7.3880     0.6170     0.1560 ha         1 PQC       0.116000
     35 H10          3.7180     2.9030    -0.2670 ha         1 PQC       0.116000
     36 H11          5.0410     4.9720    -0.3890 ha         1 PQC       0.115000
     37 H12          7.5270     4.8940    -0.2420 ha         1 PQC       0.114000
     38 H15         -0.3450    -4.5000     0.2160 h4         1 PQC       0.025100
     39 HN19        -1.4820     0.6000    -0.0940 hn         1 PQC       0.514000
     40 H21         -3.5500     1.4780     0.5250 ha         1 PQC       0.135000
     41 H22         -3.2250    -2.3340    -1.4700 ha         1 PQC       0.147000
     42 H23         -5.6810    -2.4040    -1.7540 ha         1 PQC       0.119000
     43 H24         -7.1000    -0.5490    -0.9180 ha         1 PQC       0.140000
     44 HN29        -6.1990     2.3750    -1.5870 hn         1 PQC       0.473500
     45 HN2A        -7.3940     3.2000    -0.9130 hn         1 PQC       0.473500
     46 H30          8.6820     2.7040     0.0300 ha         1 PQC       0.115000
@<TRIPOS>BOND
     1     1     2 ar  
     2     1     3 ar  
     3     1    31 1   
     4     2    14 ar  
     5     2    32 1   
     6     3     4 ar  
     7     3     6 1   
     8     4     5 1   
     9     4    13 ar  
    10     5     7 2   
    11     5    33 1   
    12     6     7 1   
    13     7     8 1   
    14     8     9 ar  
    15     8    10 ar  
    16     9    30 ar  
    17     9    34 1   
    18    10    11 ar  
    19    10    35 1   
    20    11    12 ar  
    21    11    36 1   
    22    12    30 ar  
    23    12    37 1   
    24    13    14 ar  
    25    13    17 ar  
    26    14    15 ar  
    27    15    16 ar  
    28    15    38 1   
    29    16    18 ar  
    30    17    18 ar  
    31    18    19 1   
    32    19    20 1   
    33    19    39 1   
    34    20    21 ar  
    35    20    22 ar  
    36    21    25 ar  
    37    21    40 1   
    38    22    23 ar  
    39    22    41 1   
    40    23    24 ar  
    41    23    42 1   
    42    24    25 ar  
    43    24    43 1   
    44    25    26 1   
    45    26    27 2   
    46    26    28 2   
    47    26    29 1   
    48    29    44 1   
    49    29    45 1   
    50    30    46 1   
@<TRIPOS>SUBSTRUCTURE
     1 PQC         1 TEMP              0 ****  ****    0 ROOT
