@<TRIPOS>MOLECULE
PQC
   46    50     1     0     0
SMALL
bcc


@<TRIPOS>ATOM
      1 C1           3.6050    -3.3930     0.1130 ca         1 PQC      -0.111000
      2 C2           2.3260    -3.8630     0.0520 ca         1 PQC      -0.073000
      3 C3           3.8070    -1.9960     0.0600 ca         1 PQC      -0.025100
      4 C4           2.7630    -1.0800    -0.0500 ca         1 PQC      -0.149100
      5 C5           3.2150     0.2690    -0.0880 cc         1 PQC      -0.083200
      6 S6           5.3260    -1.1890     0.1120 ss         1 PQC      -0.015500
      7 C7           4.5690     0.3750    -0.0080 cd         1 PQC      -0.014600
      8 C8           5.3800     1.5910    -0.0260 ca         1 PQC      -0.026800
      9 C9           6.6280     1.6450     0.6000 ca         1 PQC      -0.115500
     10 C10          4.9070     2.7340    -0.6770 ca         1 PQC      -0.115500
     11 C11          5.6560     3.8990    -0.6900 ca         1 PQC      -0.126000
     12 C12          6.8950     3.9430    -0.0640 ca         1 PQC      -0.122000
     13 C13          1.4280    -1.5680    -0.1030 ca         1 PQC       0.521600
     14 C14          1.2320    -2.9660    -0.0540 ca         1 PQC      -0.324600
     15 C15         -0.1080    -3.3800    -0.1180 ca         1 PQC       0.501200
     16 N16         -1.1120    -2.5490    -0.2110 nb         1 PQC      -0.751000
     17 N17          0.3990    -0.7170    -0.1980 nb         1 PQC      -0.773000
     18 C18         -0.8110    -1.2370    -0.2440 ca         1 PQC       0.916900
     19 N19         -1.8280    -0.3320    -0.3180 nu         1 PQC      -0.737300
     20 C20         -3.2040    -0.5080    -0.3680 ca         1 PQC       0.165600
     21 C21         -3.9880     0.5910    -0.0140 ca         1 PQC      -0.084000
     22 C22         -3.8430    -1.6820    -0.7830 ca         1 PQC      -0.096000
     23 C23         -5.2260    -1.7440    -0.8230 ca         1 PQC      -0.125000
     24 C24         -6.0140    -0.6590    -0.4670 ca         1 PQC      -0.067000
     25 C25         -5.3680     0.5010    -0.0740 ca         1 PQC      -0.235500
     26 S26         -6.3210     1.9210     0.3920 sy         1 PQC       1.263200
     27 O27         -7.6990     1.4890     0.5840 o          1 PQC      -0.613800
     28 O28         -5.6560     2.6150     1.4860 o          1 PQC      -0.613800
     29 N29         -6.1320     2.8830    -0.9370 n8         1 PQC      -0.893700
     30 C30          7.3780     2.8110     0.5790 ca         1 PQC      -0.126000
     31 H1           4.4440    -4.0690     0.1980 ha         1 PQC       0.144000
     32 H2           2.1330    -4.9280     0.0880 ha         1 PQC       0.136000
     33 H5           2.5500     1.1180    -0.1520 ha         1 PQC       0.170000
     34 H9           7.0130     0.7800     1.1270 ha         1 PQC       0.134000
     35 H10          3.9540     2.7060    -1.1910 ha         1 PQC       0.134000
     36 H11          5.2750     4.7730    -1.2020 ha         1 PQC       0.133000
     37 H12          7.4810     4.8530    -0.0760 ha         1 PQC       0.132000
     38 H15         -0.3480    -4.4390    -0.0880 h4         1 PQC       0.025100
     39 HN19        -1.5130     0.6230    -0.2330 hn         1 PQC       0.458800
     40 H21         -3.5100     1.5070     0.3120 ha         1 PQC       0.153000
     41 H22         -3.2650    -2.5440    -1.0720 ha         1 PQC       0.165000
     42 H23         -5.6980    -2.6620    -1.1460 ha         1 PQC       0.137000
     43 H24         -7.0920    -0.7260    -0.5020 ha         1 PQC       0.158000
     44 HN29        -6.6890     2.5730    -1.7270 hn         1 PQC       0.418300
     45 HN2A        -6.3360     3.8550    -0.7230 hn         1 PQC       0.418300
     46 H30          8.3400     2.8350     1.0740 ha         1 PQC       0.133000
@<TRIPOS>BOND
     1     1     2 ar  
     2     1     3 ar  
     3     1    31 1   
     4     2    14 ar  
     5     2    32 1   
     6     3     4 ar  
     7     3     6 1   
     8     4     5 1   
     9     4    13 ar  
    10     5     7 2   
    11     5    33 1   
    12     6     7 1   
    13     7     8 1   
    14     8     9 ar  
    15     8    10 ar  
    16     9    30 ar  
    17     9    34 1   
    18    10    11 ar  
    19    10    35 1   
    20    11    12 ar  
    21    11    36 1   
    22    12    30 ar  
    23    12    37 1   
    24    13    14 ar  
    25    13    17 ar  
    26    14    15 ar  
    27    15    16 ar  
    28    15    38 1   
    29    16    18 ar  
    30    17    18 ar  
    31    18    19 1   
    32    19    20 1   
    33    19    39 1   
    34    20    21 ar  
    35    20    22 ar  
    36    21    25 ar  
    37    21    40 1   
    38    22    23 ar  
    39    22    41 1   
    40    23    24 ar  
    41    23    42 1   
    42    24    25 ar  
    43    24    43 1   
    44    25    26 1   
    45    26    27 2   
    46    26    28 2   
    47    26    29 1   
    48    29    44 1   
    49    29    45 1   
    50    30    46 1   
@<TRIPOS>SUBSTRUCTURE
     1 PQC         1 TEMP              0 ****  ****    0 ROOT
