@<TRIPOS>MOLECULE
PQD
   39    42     1     0     0
SMALL
No Charge or Current Charge


@<TRIPOS>ATOM
      1 CAK         -4.0260     0.9020     0.8620 ca         1 PQD      -0.172000
      2 CAO         -4.7740     1.6500    -0.0600 ca         1 PQD       0.291000
      3 NAA         -5.5780     2.6670     0.3750 nv         1 PQD      -1.072000
      4 CAE         -4.6970     1.3530    -1.4280 ca         1 PQD      -0.170000
      5 CAD         -3.8750     0.3050    -1.8760 ca         1 PQD      -0.068000
      6 CAF         -3.1260    -0.4430    -0.9520 ca         1 PQD      -0.132000
      7 CAP         -3.1920    -0.1480     0.4270 ca         1 PQD      -0.076300
      8 CAL         -2.3860    -0.9500     1.4490 c3         1 PQD       0.121900
      9 NAW         -1.0520    -1.3780     0.9840 na         1 PQD      -0.063700
     10 CAU          0.0100    -0.5190     0.7300 ca         1 PQD      -0.094200
     11 CAH          0.0260     0.8790     0.8450 ca         1 PQD      -0.064000
     12 CAG          1.2090     1.5610     0.5090 ca         1 PQD      -0.108000
     13 C4           2.3590     0.8610     0.0780 ca         1 PQD       0.090000
     14 N3           3.4790     1.5420    -0.2390 nb         1 PQD      -0.282000
     15 C2           4.5370     0.8240    -0.6330 ca         1 PQD       0.401900
     16 NAB          5.6500     1.5230    -0.9500 nv         1 PQD      -1.052900
     17 N1           4.6300    -0.5010    -0.7450 nb         1 PQD      -0.334000
     18 C6           3.5270    -1.1900    -0.4350 ca         1 PQD       0.419900
     19 NAC          3.7090    -2.5340    -0.5120 nv         1 PQD      -1.059900
     20 C5           2.3280    -0.5600    -0.0190 ca         1 PQD      -0.178000
     21 CAT          1.1140    -1.2170     0.3040 ca         1 PQD      -0.042800
     22 CAI          0.7140    -2.6040     0.2600 cc         1 PQD      -0.258200
     23 CAJ         -0.6080    -2.6790     0.6800 cd         1 PQD      -0.168100
     24 HAK         -4.0890     1.1370     1.9210 ha         1 PQD       0.110000
     25 HAN         -5.7440     2.7910     1.3720 hn         1 PQD       0.448000
     26 HAA         -6.2270     3.1150    -0.2700 hn         1 PQD       0.448000
     27 HAE         -5.2740     1.9290    -2.1470 ha         1 PQD       0.114000
     28 HAD         -3.8170     0.0730    -2.9370 ha         1 PQD       0.114000
     29 HAF         -2.4960    -1.2540    -1.3110 ha         1 PQD       0.123000
     30 H1          -2.2520    -0.3550     2.3610 h1         1 PQD       0.063200
     31 H2          -2.9580    -1.8440     1.7260 h1         1 PQD       0.063200
     32 HAH         -0.8510     1.4300     1.1750 ha         1 PQD       0.120000
     33 HAG          1.2380     2.6460     0.5850 ha         1 PQD       0.131000
     34 HAB          5.5640     2.5260    -1.0920 hn         1 PQD       0.480500
     35 HAO          6.3920     1.0470    -1.4560 hn         1 PQD       0.480500
     36 HAP          3.1060    -3.1070     0.0660 hn         1 PQD       0.483500
     37 HAC          4.6630    -2.8670    -0.6180 hn         1 PQD       0.483500
     38 HAI          1.2830    -3.4600    -0.0850 ha         1 PQD       0.197000
     39 HAJ         -1.2600    -3.5430     0.7660 h4         1 PQD       0.210000
@<TRIPOS>BOND
     1     1     2 ar  
     2     1     7 ar  
     3     1    24 1   
     4     2     3 1   
     5     2     4 ar  
     6     3    25 1   
     7     3    26 1   
     8     4     5 ar  
     9     4    27 1   
    10     5     6 ar  
    11     5    28 1   
    12     6     7 ar  
    13     6    29 1   
    14     7     8 1   
    15     8     9 1   
    16     8    30 1   
    17     8    31 1   
    18     9    10 1   
    19     9    23 1   
    20    10    11 ar  
    21    10    21 ar  
    22    11    12 ar  
    23    11    32 1   
    24    12    13 ar  
    25    12    33 1   
    26    13    14 ar  
    27    13    20 ar  
    28    14    15 ar  
    29    15    16 1   
    30    15    17 ar  
    31    16    34 1   
    32    16    35 1   
    33    17    18 ar  
    34    18    19 1   
    35    18    20 ar  
    36    19    36 1   
    37    19    37 1   
    38    20    21 ar  
    39    21    22 1   
    40    22    23 2   
    41    22    38 1   
    42    23    39 1   
@<TRIPOS>SUBSTRUCTURE
     1 PQD         1 TEMP              0 ****  ****    0 ROOT
