@<TRIPOS>MOLECULE
PQD
   39    42     1     0     0
SMALL
abcg2


@<TRIPOS>ATOM
      1 CAK         -3.8940     0.9220     0.8170 ca         1 PQD      -0.172000
      2 CAO         -4.6450     1.6670    -0.1010 ca         1 PQD       0.291000
      3 NAA         -5.3500     2.7790     0.3070 nv         1 PQD      -1.072000
      4 CAE         -4.6090     1.2890    -1.4470 ca         1 PQD      -0.170000
      5 CAD         -3.8470     0.2030    -1.8470 ca         1 PQD      -0.068000
      6 CAF         -3.1080    -0.5330    -0.9310 ca         1 PQD      -0.132000
      7 CAP         -3.1370    -0.1670     0.4110 ca         1 PQD      -0.076300
      8 CAL         -2.3760    -0.9590     1.4470 c3         1 PQD       0.121900
      9 NAW         -1.0600    -1.3550     1.0040 na         1 PQD      -0.063700
     10 CAU         -0.0130    -0.5040     0.7740 ca         1 PQD      -0.094200
     11 CAH          0.0350     0.8880     0.9390 ca         1 PQD      -0.064000
     12 CAG          1.1900     1.5400     0.6150 ca         1 PQD      -0.108000
     13 C4           2.3310     0.8380     0.1350 ca         1 PQD       0.090000
     14 N3           3.4260     1.5660    -0.1830 nb         1 PQD      -0.282000
     15 C2           4.4690     0.8970    -0.6240 ca         1 PQD       0.401900
     16 NAB          5.5910     1.5980    -0.9360 nv         1 PQD      -1.052900
     17 N1           4.5650    -0.4380    -0.7520 nb         1 PQD      -0.334000
     18 C6           3.5140    -1.1650    -0.4340 ca         1 PQD       0.419900
     19 NAC          3.6380    -2.5010    -0.5650 nv         1 PQD      -1.059900
     20 C5           2.2890    -0.5670     0.0020 ca         1 PQD      -0.178000
     21 CAT          1.0780    -1.2530     0.3020 ca         1 PQD      -0.042800
     22 CAI          0.6260    -2.6060     0.2360 cc         1 PQD      -0.258200
     23 CAJ         -0.6730    -2.6140     0.6700 cd         1 PQD      -0.168100
     24 HAK         -3.9040     1.2070     1.8640 ha         1 PQD       0.110000
     25 HAN         -5.6290     2.7890     1.2750 hn         1 PQD       0.448000
     26 HAA         -6.1010     3.0660    -0.3000 hn         1 PQD       0.448000
     27 HAE         -5.1810     1.8490    -2.1780 ha         1 PQD       0.114000
     28 HAD         -3.8340    -0.0750    -2.8930 ha         1 PQD       0.114000
     29 HAF         -2.5200    -1.3800    -1.2630 ha         1 PQD       0.123000
     30 H1          -2.2890    -0.3860     2.3730 h1         1 PQD       0.063200
     31 H2          -2.9190    -1.8710     1.7000 h1         1 PQD       0.063200
     32 HAH         -0.8240     1.4390     1.3020 ha         1 PQD       0.120000
     33 HAG          1.2620     2.6150     0.7140 ha         1 PQD       0.131000
     34 HAB          5.4880     2.5870    -1.0870 hn         1 PQD       0.480500
     35 HAO          6.2760     1.1400    -1.5130 hn         1 PQD       0.480500
     36 HAP          3.0420    -3.1160    -0.0410 hn         1 PQD       0.483500
     37 HAC          4.5660    -2.8530    -0.7370 hn         1 PQD       0.483500
     38 HAI          1.1430    -3.4860    -0.1060 ha         1 PQD       0.197000
     39 HAJ         -1.3590    -3.4420     0.7620 h4         1 PQD       0.210000
@<TRIPOS>BOND
     1     1     2 ar  
     2     1     7 ar  
     3     1    24 1   
     4     2     3 1   
     5     2     4 ar  
     6     3    25 1   
     7     3    26 1   
     8     4     5 ar  
     9     4    27 1   
    10     5     6 ar  
    11     5    28 1   
    12     6     7 ar  
    13     6    29 1   
    14     7     8 1   
    15     8     9 1   
    16     8    30 1   
    17     8    31 1   
    18     9    10 1   
    19     9    23 1   
    20    10    11 ar  
    21    10    21 ar  
    22    11    12 ar  
    23    11    32 1   
    24    12    13 ar  
    25    12    33 1   
    26    13    14 ar  
    27    13    20 ar  
    28    14    15 ar  
    29    15    16 1   
    30    15    17 ar  
    31    16    34 1   
    32    16    35 1   
    33    17    18 ar  
    34    18    19 1   
    35    18    20 ar  
    36    19    36 1   
    37    19    37 1   
    38    20    21 ar  
    39    21    22 1   
    40    22    23 2   
    41    22    38 1   
    42    23    39 1   
@<TRIPOS>SUBSTRUCTURE
     1 PQD         1 TEMP              0 ****  ****    0 ROOT
