@<TRIPOS>MOLECULE
PQE
   97    96     1     0     0
SMALL
abcg2


@<TRIPOS>ATOM
      1 O47         18.8280     9.1810    11.6370 oh         1 PQE      -0.701000
      2 C68         18.5790     9.7410    10.3690 c3         1 PQE       0.158600
      3 C52         17.5700    10.8680    10.3820 c3         1 PQE       0.122600
      4 O70         16.3220    10.3890    10.8110 os         1 PQE      -0.431000
      5 C55         15.3400    11.3920    10.8610 c3         1 PQE       0.160600
      6 C58         14.0180    10.7910    11.2640 c3         1 PQE       0.164600
      7 O71         13.5770     9.9120    10.2620 os         1 PQE      -0.449000
      8 C61         12.3410     9.3090    10.5570 c3         1 PQE       0.161600
      9 C62         11.9120     8.4530     9.3830 c3         1 PQE      -0.079400
     10 C63         10.5480     7.8140     9.6080 c3         1 PQE      -0.076400
     11 C66         10.1000     6.9700     8.4210 c3         1 PQE      -0.078400
     12 C67          8.7260     6.3760     8.6510 c3         1 PQE       0.159600
     13 O72          8.3580     5.5720     7.5590 os         1 PQE      -0.446000
     14 C65          7.0690     5.0310     7.6990 c3         1 PQE       0.162600
     15 C64          6.8030     4.0290     6.6060 c3         1 PQE       0.162600
     16 O73          7.6600     2.9290     6.7670 os         1 PQE      -0.428000
     17 C60          7.3760     1.8720     5.8870 c3         1 PQE       0.163600
     18 C59          8.3410     0.7410     6.1370 c3         1 PQE       0.162600
     19 O74          8.1500     0.2420     7.4350 os         1 PQE      -0.432000
     20 C57          9.0600    -0.7690     7.7830 c3         1 PQE       0.163600
     21 C56          8.8710    -1.1410     9.2320 c3         1 PQE       0.163600
     22 O75          9.1950    -0.0390    10.0390 os         1 PQE      -0.432000
     23 C54          9.0580    -0.2960    11.4130 c3         1 PQE       0.160600
     24 C53          9.3360     0.9710    12.1840 c3         1 PQE       0.166600
     25 O76          8.3290     1.9100    11.9100 os         1 PQE      -0.446000
     26 C51          8.6110     3.2020    12.3890 c3         1 PQE       0.166600
     27 C50          7.4800     4.1280    11.9890 c3         1 PQE      -0.082400
     28 C49          7.7420     5.5820    12.3630 c3         1 PQE      -0.074400
     29 C48          6.6460     6.5110    11.8570 c3         1 PQE      -0.076400
     30 C47          6.9120     7.9860    12.1270 c3         1 PQE      -0.075400
     31 C46          5.8640     8.8870    11.4840 c3         1 PQE      -0.074400
     32 C45          5.9960    10.3670    11.8370 c3         1 PQE      -0.070400
     33 C44          7.3490    10.9970    11.5120 c3         1 PQE      -0.073400
     34 C43          7.7680    10.8790    10.0510 c3         1 PQE      -0.076400
     35 C42          9.0720    11.6100     9.7560 c3         1 PQE      -0.077400
     36 C41          9.5760    11.4210     8.3300 c3         1 PQE      -0.076400
     37 C40         10.8970    12.1330     8.0720 c3         1 PQE      -0.092100
     38 HO47        19.2330     9.8570    12.1880 ho         1 PQE       0.493000
     39 H681        19.4950    10.1230     9.9000 h1         1 PQE       0.050700
     40 H682        18.2130     8.9310     9.7330 h1         1 PQE       0.050700
     41 H521        17.5060    11.2870     9.3670 h1         1 PQE       0.019700
     42 H522        17.9240    11.6820    11.0340 h1         1 PQE       0.019700
     43 H551        15.6030    12.1690    11.5930 h1         1 PQE       0.026200
     44 H552        15.2390    11.8950     9.8880 h1         1 PQE       0.026200
     45 H581        13.3020    11.6120    11.4130 h1         1 PQE       0.028200
     46 H582        14.1160    10.2750    12.2300 h1         1 PQE       0.028200
     47 H611        12.4120     8.6970    11.4680 h1         1 PQE       0.018200
     48 H612        11.5770    10.0760    10.7530 h1         1 PQE       0.018200
     49 H621        11.8790     9.0730     8.4810 hc         1 PQE       0.055200
     50 H622        12.6590     7.6740     9.2070 hc         1 PQE       0.055200
     51 H631         9.8050     8.5970     9.7960 hc         1 PQE       0.038200
     52 H632        10.5720     7.1950    10.5110 hc         1 PQE       0.038200
     53 H661        10.8220     6.1670     8.2500 hc         1 PQE       0.054200
     54 H662        10.0850     7.5860     7.5160 hc         1 PQE       0.054200
     55 H671         8.7350     5.7780     9.5750 h1         1 PQE       0.018700
     56 H672         7.9910     7.1820     8.8040 h1         1 PQE       0.018700
     57 H651         6.9550     4.5400     8.6770 h1         1 PQE       0.029200
     58 H652         6.3020     5.8170     7.6510 h1         1 PQE       0.029200
     59 H641         6.9360     4.4950     5.6190 h1         1 PQE       0.025700
     60 H642         5.7500     3.7250     6.6760 h1         1 PQE       0.025700
     61 H601         6.3420     1.5200     6.0160 h1         1 PQE       0.025200
     62 H602         7.4780     2.1840     4.8390 h1         1 PQE       0.025200
     63 H591         9.3730     1.0950     6.0010 h1         1 PQE       0.027200
     64 H592         8.1690    -0.0350     5.3780 h1         1 PQE       0.027200
     65 H571         8.9110    -1.6700     7.1700 h1         1 PQE       0.025700
     66 H572        10.0960    -0.4410     7.6170 h1         1 PQE       0.025700
     67 H561         9.5160    -2.0030     9.4530 h1         1 PQE       0.025200
     68 H562         7.8350    -1.4660     9.4060 h1         1 PQE       0.025200
     69 H541         8.0490    -0.6640    11.6470 h1         1 PQE       0.026200
     70 H542         9.7630    -1.0700    11.7470 h1         1 PQE       0.026200
     71 H531        10.3260     1.3600    11.9080 h1         1 PQE       0.027700
     72 H532         9.3770     0.7280    13.2550 h1         1 PQE       0.027700
     73 H511         8.7330     3.2010    13.4820 h1         1 PQE       0.017700
     74 H512         9.5590     3.5680    11.9670 h1         1 PQE       0.017700
     75 H501         7.3350     4.0580    10.9060 hc         1 PQE       0.053700
     76 H502         6.5470     3.7900    12.4500 hc         1 PQE       0.053700
     77 H491         7.8370     5.6790    13.4490 hc         1 PQE       0.037200
     78 H492         8.7060     5.8970    11.9480 hc         1 PQE       0.037200
     79 H481         5.6900     6.2230    12.3080 hc         1 PQE       0.036700
     80 H482         6.5190     6.3640    10.7770 hc         1 PQE       0.036700
     81 H471         6.9460     8.1650    13.2070 hc         1 PQE       0.038700
     82 H472         7.9050     8.2470    11.7450 hc         1 PQE       0.038700
     83 H461         5.9040     8.7550    10.3970 hc         1 PQE       0.036700
     84 H462         4.8680     8.5470    11.7850 hc         1 PQE       0.036700
     85 H451         5.2090    10.9220    11.3170 hc         1 PQE       0.037700
     86 H452         5.7980    10.4940    12.9060 hc         1 PQE       0.037700
     87 H441         8.1270    10.5550    12.1440 hc         1 PQE       0.035700
     88 H442         7.3120    12.0560    11.7870 hc         1 PQE       0.035700
     89 H431         7.8820     9.8220     9.7840 hc         1 PQE       0.038700
     90 H432         6.9730    11.2670     9.4050 hc         1 PQE       0.038700
     91 H421         8.9440    12.6780     9.9580 hc         1 PQE       0.034200
     92 H422         9.8410    11.2640    10.4560 hc         1 PQE       0.034200
     93 H411         8.8180    11.7820     7.6280 hc         1 PQE       0.038200
     94 H412         9.6950    10.3520     8.1230 hc         1 PQE       0.038200
     95 H401        11.6930    11.7320     8.7040 hc         1 PQE       0.033033
     96 H402        11.2170    12.0190     7.0350 hc         1 PQE       0.033033
     97 H403        10.8190    13.2010     8.2800 hc         1 PQE       0.033033
@<TRIPOS>BOND
     1     1     2 1   
     2     1    38 1   
     3     2     3 1   
     4     2    39 1   
     5     2    40 1   
     6     3     4 1   
     7     3    41 1   
     8     3    42 1   
     9     4     5 1   
    10     5     6 1   
    11     5    43 1   
    12     5    44 1   
    13     6     7 1   
    14     6    45 1   
    15     6    46 1   
    16     7     8 1   
    17     8     9 1   
    18     8    47 1   
    19     8    48 1   
    20     9    10 1   
    21     9    49 1   
    22     9    50 1   
    23    10    11 1   
    24    10    51 1   
    25    10    52 1   
    26    11    12 1   
    27    11    53 1   
    28    11    54 1   
    29    12    13 1   
    30    12    55 1   
    31    12    56 1   
    32    13    14 1   
    33    14    15 1   
    34    14    57 1   
    35    14    58 1   
    36    15    16 1   
    37    15    59 1   
    38    15    60 1   
    39    16    17 1   
    40    17    18 1   
    41    17    61 1   
    42    17    62 1   
    43    18    19 1   
    44    18    63 1   
    45    18    64 1   
    46    19    20 1   
    47    20    21 1   
    48    20    65 1   
    49    20    66 1   
    50    21    22 1   
    51    21    67 1   
    52    21    68 1   
    53    22    23 1   
    54    23    24 1   
    55    23    69 1   
    56    23    70 1   
    57    24    25 1   
    58    24    71 1   
    59    24    72 1   
    60    25    26 1   
    61    26    27 1   
    62    26    73 1   
    63    26    74 1   
    64    27    28 1   
    65    27    75 1   
    66    27    76 1   
    67    28    29 1   
    68    28    77 1   
    69    28    78 1   
    70    29    30 1   
    71    29    79 1   
    72    29    80 1   
    73    30    31 1   
    74    30    81 1   
    75    30    82 1   
    76    31    32 1   
    77    31    83 1   
    78    31    84 1   
    79    32    33 1   
    80    32    85 1   
    81    32    86 1   
    82    33    34 1   
    83    33    87 1   
    84    33    88 1   
    85    34    35 1   
    86    34    89 1   
    87    34    90 1   
    88    35    36 1   
    89    35    91 1   
    90    35    92 1   
    91    36    37 1   
    92    36    93 1   
    93    36    94 1   
    94    37    95 1   
    95    37    96 1   
    96    37    97 1   
@<TRIPOS>SUBSTRUCTURE
     1 PQE         1 TEMP              0 ****  ****    0 ROOT
