@<TRIPOS>MOLECULE
PQE
   97    96     1     0     0
SMALL
No Charge or Current Charge


@<TRIPOS>ATOM
      1 O47         18.6490     8.9920    11.3080 oh         1 PQE      -0.701000
      2 C68         18.7440     9.8550    10.1640 c3         1 PQE       0.158600
      3 C52         17.7740    11.0500    10.3310 c3         1 PQE       0.122600
      4 O70         16.5210    10.5450    10.8350 os         1 PQE      -0.431000
      5 C55         15.5040    11.5510    11.0200 c3         1 PQE       0.160600
      6 C58         14.2170    10.8770    11.5540 c3         1 PQE       0.164600
      7 O71         13.6210    10.0970    10.4980 os         1 PQE      -0.449000
      8 C61         12.4120     9.4210    10.8710 c3         1 PQE       0.161600
      9 C62         11.9000     8.6610     9.6330 c3         1 PQE      -0.079400
     10 C63         10.5630     7.9320     9.8860 c3         1 PQE      -0.076400
     11 C66         10.0360     7.1820     8.6440 c3         1 PQE      -0.078400
     12 C67          8.6680     6.5220     8.8880 c3         1 PQE       0.159600
     13 O72          8.3250     5.7590     7.7230 os         1 PQE      -0.446000
     14 C65          7.0470     5.0960     7.8090 c3         1 PQE       0.162600
     15 C64          6.8740     4.1540     6.5940 c3         1 PQE       0.162600
     16 O73          7.7590     3.0280     6.7510 os         1 PQE      -0.428000
     17 C60          7.6060     1.9940     5.7590 c3         1 PQE       0.163600
     18 C59          8.6220     0.8630     6.0530 c3         1 PQE       0.162600
     19 O74          8.2640     0.2190     7.2920 os         1 PQE      -0.432000
     20 C57          9.1600    -0.8330     7.7050 c3         1 PQE       0.163600
     21 C56          8.7540    -1.3120     9.1200 c3         1 PQE       0.163600
     22 O75          9.0820    -0.2780    10.0690 os         1 PQE      -0.432000
     23 C54          8.7260    -0.5680    11.4350 c3         1 PQE       0.160600
     24 C53          9.0680     0.6640    12.3060 c3         1 PQE       0.166600
     25 O76          8.1420     1.7240    11.9930 os         1 PQE      -0.446000
     26 C51          8.4450     2.9890    12.5970 c3         1 PQE       0.166600
     27 C50          7.3910     3.9960    12.1020 c3         1 PQE      -0.082400
     28 C49          7.6910     5.4530    12.5170 c3         1 PQE      -0.074400
     29 C48          6.6450     6.4530    11.9780 c3         1 PQE      -0.076400
     30 C47          7.0170     7.9270    12.2470 c3         1 PQE      -0.075400
     31 C46          5.9950     8.9200    11.6460 c3         1 PQE      -0.074400
     32 C45          6.2920    10.4110    11.9460 c3         1 PQE      -0.070400
     33 C44          7.6340    10.9610    11.3980 c3         1 PQE      -0.073400
     34 C43          7.7800    10.8830     9.8600 c3         1 PQE      -0.076400
     35 C42          9.0730    11.5540     9.3460 c3         1 PQE      -0.077400
     36 C41          9.2770    11.3910     7.8250 c3         1 PQE      -0.076400
     37 C40         10.5640    12.0680     7.3150 c3         1 PQE      -0.092100
     38 HO47        17.7090     9.0850    11.5970 ho         1 PQE       0.493000
     39 H681        19.7690    10.2290    10.0350 h1         1 PQE       0.050700
     40 H682        18.4710     9.3080     9.2520 h1         1 PQE       0.050700
     41 H521        17.6380    11.5490     9.3630 h1         1 PQE       0.019700
     42 H522        18.2070    11.7740    11.0350 h1         1 PQE       0.019700
     43 H551        15.8400    12.3000    11.7480 h1         1 PQE       0.026200
     44 H552        15.2840    12.0670    10.0760 h1         1 PQE       0.026200
     45 H581        13.5220    11.6580    11.8880 h1         1 PQE       0.028200
     46 H582        14.4640    10.2470    12.4180 h1         1 PQE       0.028200
     47 H611        12.5980     8.7120    11.6880 h1         1 PQE       0.018200
     48 H612        11.6520    10.1420    11.2030 h1         1 PQE       0.018200
     49 H621        11.7720     9.3700     8.8060 hc         1 PQE       0.055200
     50 H622        12.6580     7.9330     9.3210 hc         1 PQE       0.055200
     51 H631         9.8130     8.6620    10.2110 hc         1 PQE       0.038200
     52 H632        10.6900     7.2200    10.7110 hc         1 PQE       0.038200
     53 H661        10.7610     6.4110     8.3550 hc         1 PQE       0.054200
     54 H662         9.9500     7.8790     7.8020 hc         1 PQE       0.054200
     55 H671         8.7330     5.8660     9.7650 h1         1 PQE       0.018700
     56 H672         7.9150     7.2970     9.0850 h1         1 PQE       0.018700
     57 H651         6.9710     4.5070     8.7320 h1         1 PQE       0.029200
     58 H652         6.2360     5.8350     7.8110 h1         1 PQE       0.029200
     59 H641         7.0880     4.6990     5.6650 h1         1 PQE       0.025700
     60 H642         5.8300     3.8150     6.5600 h1         1 PQE       0.025700
     61 H601         6.5880     1.5840     5.7730 h1         1 PQE       0.025200
     62 H602         7.8010     2.3960     4.7560 h1         1 PQE       0.025200
     63 H591         9.6330     1.2880     6.1090 h1         1 PQE       0.027200
     64 H592         8.6010     0.1400     5.2270 h1         1 PQE       0.027200
     65 H571         9.1020    -1.6780     7.0070 h1         1 PQE       0.025700
     66 H572        10.2000    -0.4790     7.7270 h1         1 PQE       0.025700
     67 H561         9.3020    -2.2340     9.3560 h1         1 PQE       0.025200
     68 H562         7.6800    -1.5380     9.1370 h1         1 PQE       0.025200
     69 H541         7.6550    -0.7950    11.5240 h1         1 PQE       0.026200
     70 H542         9.2920    -1.4350    11.8000 h1         1 PQE       0.026200
     71 H531        10.1030     0.9730    12.1070 h1         1 PQE       0.027700
     72 H532         8.9900     0.3910    13.3660 h1         1 PQE       0.027700
     73 H511         8.4140     2.9220    13.6930 h1         1 PQE       0.017700
     74 H512         9.4450     3.3280    12.2950 h1         1 PQE       0.017700
     75 H501         7.3400     3.9420    11.0080 hc         1 PQE       0.053700
     76 H502         6.4060     3.7020    12.4860 hc         1 PQE       0.053700
     77 H491         7.7290     5.5210    13.6110 hc         1 PQE       0.037200
     78 H492         8.6850     5.7330    12.1460 hc         1 PQE       0.037200
     79 H481         5.6710     6.2360    12.4340 hc         1 PQE       0.036700
     80 H482         6.5260     6.3070    10.8980 hc         1 PQE       0.036700
     81 H471         7.0910     8.0910    13.3290 hc         1 PQE       0.038700
     82 H472         8.0080     8.1230    11.8230 hc         1 PQE       0.038700
     83 H461         5.9310     8.7680    10.5620 hc         1 PQE       0.036700
     84 H462         5.0010     8.6840    12.0470 hc         1 PQE       0.036700
     85 H451         5.4740    11.0170    11.5380 hc         1 PQE       0.037700
     86 H452         6.2720    10.5620    13.0320 hc         1 PQE       0.037700
     87 H441         8.4700    10.4340    11.8710 hc         1 PQE       0.035700
     88 H442         7.7210    12.0110    11.7050 hc         1 PQE       0.035700
     89 H431         7.7750     9.8320     9.5450 hc         1 PQE       0.038700
     90 H432         6.9140    11.3620     9.3880 hc         1 PQE       0.038700
     91 H421         9.0450    12.6220     9.5950 hc         1 PQE       0.034200
     92 H422         9.9360    11.1290     9.8710 hc         1 PQE       0.034200
     93 H411         8.4160    11.8150     7.2940 hc         1 PQE       0.038200
     94 H412         9.3140    10.3240     7.5760 hc         1 PQE       0.038200
     95 H401        11.4480    11.6510     7.8130 hc         1 PQE       0.033033
     96 H402        10.6740    11.9150     6.2350 hc         1 PQE       0.033033
     97 H403        10.5370    13.1470     7.5080 hc         1 PQE       0.033033
@<TRIPOS>BOND
     1     1     2 1   
     2     1    38 1   
     3     2     3 1   
     4     2    39 1   
     5     2    40 1   
     6     3     4 1   
     7     3    41 1   
     8     3    42 1   
     9     4     5 1   
    10     5     6 1   
    11     5    43 1   
    12     5    44 1   
    13     6     7 1   
    14     6    45 1   
    15     6    46 1   
    16     7     8 1   
    17     8     9 1   
    18     8    47 1   
    19     8    48 1   
    20     9    10 1   
    21     9    49 1   
    22     9    50 1   
    23    10    11 1   
    24    10    51 1   
    25    10    52 1   
    26    11    12 1   
    27    11    53 1   
    28    11    54 1   
    29    12    13 1   
    30    12    55 1   
    31    12    56 1   
    32    13    14 1   
    33    14    15 1   
    34    14    57 1   
    35    14    58 1   
    36    15    16 1   
    37    15    59 1   
    38    15    60 1   
    39    16    17 1   
    40    17    18 1   
    41    17    61 1   
    42    17    62 1   
    43    18    19 1   
    44    18    63 1   
    45    18    64 1   
    46    19    20 1   
    47    20    21 1   
    48    20    65 1   
    49    20    66 1   
    50    21    22 1   
    51    21    67 1   
    52    21    68 1   
    53    22    23 1   
    54    23    24 1   
    55    23    69 1   
    56    23    70 1   
    57    24    25 1   
    58    24    71 1   
    59    24    72 1   
    60    25    26 1   
    61    26    27 1   
    62    26    73 1   
    63    26    74 1   
    64    27    28 1   
    65    27    75 1   
    66    27    76 1   
    67    28    29 1   
    68    28    77 1   
    69    28    78 1   
    70    29    30 1   
    71    29    79 1   
    72    29    80 1   
    73    30    31 1   
    74    30    81 1   
    75    30    82 1   
    76    31    32 1   
    77    31    83 1   
    78    31    84 1   
    79    32    33 1   
    80    32    85 1   
    81    32    86 1   
    82    33    34 1   
    83    33    87 1   
    84    33    88 1   
    85    34    35 1   
    86    34    89 1   
    87    34    90 1   
    88    35    36 1   
    89    35    91 1   
    90    35    92 1   
    91    36    37 1   
    92    36    93 1   
    93    36    94 1   
    94    37    95 1   
    95    37    96 1   
    96    37    97 1   
@<TRIPOS>SUBSTRUCTURE
     1 PQE         1 TEMP              0 ****  ****    0 ROOT
