@<TRIPOS>MOLECULE
PQF
   70    75     1     0     0
SMALL
abcg2


@<TRIPOS>ATOM
      1 C4           1.5140    -9.3140   -24.8300 ca         1 PQF      -0.095000
      2 C5           3.5510   -10.4260   -25.4330 ca         1 PQF      -0.095000
      3 C6           2.7260    -4.7870   -21.3410 ca         1 PQF      -0.067000
      4 C7           4.8360    -9.1170   -22.4830 ca         1 PQF      -0.076000
      5 C8           2.2700    -5.2070   -24.0980 ca         1 PQF      -0.119000
      6 C10          3.1930    -5.9480   -21.9580 cp         1 PQF      -0.173500
      7 C13          1.7920    -4.0500   -23.4930 ca         1 PQF      -0.099300
      8 C15          4.1240    -7.9360   -22.6310 ca         1 PQF      -0.035200
      9 C17          2.0480    -3.8790   -22.1210 ca         1 PQF       0.128000
     10 C20          5.6010    -6.4260   -25.4600 c6         1 PQF      -0.110400
     11 C21          4.8640    -7.9860   -27.2570 c6         1 PQF      -0.110400
     12 C22          6.9280    -6.3160   -26.1950 c6         1 PQF       0.154100
     13 C24          4.9390    -7.7810   -25.7390 c6         1 PQF      -0.073700
     14 C26          1.8090    -1.6920   -24.3740 c3         1 PQF      -0.100100
     15 C28          7.9980    -9.7720   -19.6380 c3         1 PQF       0.065900
     16 C1           1.5320   -11.7070   -25.1100 ca         1 PQF      -0.097000
     17 C2           0.8460   -10.5310   -24.8130 ca         1 PQF      -0.110000
     18 C3           2.8850   -11.6490   -25.4210 ca         1 PQF      -0.110000
     19 C9           5.0580    -8.5250   -20.1450 ca         1 PQF       0.312900
     20 C11          5.3130    -9.4170   -21.2050 ca         1 PQF      -0.049000
     21 C12          2.8750    -9.2460   -25.1380 ca         1 PQF      -0.108300
     22 C14          3.9330    -7.0930   -21.5000 cp         1 PQF       0.344500
     23 C16          2.9630    -6.1460   -23.3390 ca         1 PQF      -0.004200
     24 C18          6.0310   -10.6700   -20.9790 cc         1 PQF      -0.139000
     25 C19          5.7330   -11.9630   -21.3830 cd         1 PQF       0.225300
     26 C23          6.2310    -7.7930   -27.8970 c6         1 PQF       0.154100
     27 C25          4.5860   -12.4640   -22.1890 c3         1 PQF      -0.111400
     28 C27         -0.3860    -2.7940   -23.7500 c3         1 PQF      -0.100100
     29 C29          3.5430    -7.8760   -25.1030 c3         1 PQF       0.150600
     30 C30          1.0240    -3.0030   -24.3120 c3         1 PQF       0.232300
     31 N31          4.3890    -7.3830   -20.2790 nb         1 PQF      -0.612000
     32 N32          6.7030   -12.7820   -20.9020 nd         1 PQF      -0.361000
     33 N33          7.5820   -12.0750   -20.2370 nc         1 PQF      -0.198800
     34 N34          3.5290    -7.3560   -23.7310 na         1 PQF      -0.095600
     35 N35          7.1870   -10.7980   -20.2740 na         1 PQF       0.125800
     36 O36          6.7800    -6.5100   -27.6010 os         1 PQF      -0.454000
     37 O37          0.9110    -3.4270   -25.6780 oh         1 PQF      -0.664000
     38 H42          0.9770    -8.4020   -24.5950 ha         1 PQF       0.115500
     39 H43          4.6060   -10.4110   -25.6680 ha         1 PQF       0.115500
     40 H44          2.8880    -4.5910   -20.2900 ha         1 PQF       0.150000
     41 H45          5.0310    -9.7820   -23.3080 ha         1 PQF       0.135000
     42 H46          2.1060    -5.3490   -25.1540 ha         1 PQF       0.132000
     43 H48          5.7800    -6.2930   -24.3910 hc         1 PQF       0.057950
     44 H49          4.9390    -5.6180   -25.7850 hc         1 PQF       0.057950
     45 H50          4.1640    -7.2590   -27.6810 hc         1 PQF       0.057950
     46 H51          4.4910    -8.9800   -27.5080 hc         1 PQF       0.057950
     47 H53          7.6370    -7.0580   -25.8000 h1         1 PQF       0.047950
     48 H52          7.3640    -5.3250   -26.0680 h1         1 PQF       0.047950
     49 H56          5.5860    -8.5550   -25.3140 hc         1 PQF       0.054700
     50 H60          1.9610    -1.2800   -23.3790 hc         1 PQF       0.050700
     51 H61          2.7820    -1.8640   -24.8360 hc         1 PQF       0.050700
     52 H62          1.2560    -0.9690   -24.9750 hc         1 PQF       0.050700
     53 H68          9.0160   -10.1460   -19.5780 h1         1 PQF       0.065700
     54 H66          7.9710    -8.8690   -20.2430 h1         1 PQF       0.065700
     55 H67          7.6270    -9.5530   -18.6380 h1         1 PQF       0.065700
     56 H39          1.0150   -12.6580   -25.0980 ha         1 PQF       0.119000
     57 H40         -0.2090   -10.5630   -24.5710 ha         1 PQF       0.118500
     58 H41          3.4300   -12.5560   -25.6480 ha         1 PQF       0.118500
     59 H47          5.4030    -8.7660   -19.1470 h4         1 PQF       0.023100
     60 H55          6.1660    -7.8550   -28.9840 h1         1 PQF       0.047950
     61 H54          6.9220    -8.5730   -27.5480 h1         1 PQF       0.047950
     62 H58          4.3560   -13.4940   -21.9150 hc         1 PQF       0.049700
     63 H57          3.6980   -11.8520   -22.0290 hc         1 PQF       0.049700
     64 H59          4.8090   -12.4420   -23.2570 hc         1 PQF       0.049700
     65 H63         -0.3610    -2.4310   -22.7250 hc         1 PQF       0.050700
     66 H64         -0.9120    -2.0650   -24.3680 hc         1 PQF       0.050700
     67 H65         -0.9390    -3.7360   -23.7690 hc         1 PQF       0.050700
     68 H69          2.8980    -7.1990   -25.6640 h1         1 PQF       0.072700
     69 H70          0.2640    -4.1430   -25.7290 ho         1 PQF       0.440000
     70 F38          1.6140    -2.7400   -21.5050 f          1 PQF      -0.187000
@<TRIPOS>BOND
     1     1    17 ar  
     2     1    21 ar  
     3     1    38 1   
     4     2    18 ar  
     5     2    21 ar  
     6     2    39 1   
     7     3     6 ar  
     8     3     9 ar  
     9     3    40 1   
    10     4     8 ar  
    11     4    20 ar  
    12     4    41 1   
    13     5     7 ar  
    14     5    23 ar  
    15     5    42 1   
    16     6    22 1   
    17     6    23 ar  
    18     7     9 ar  
    19     7    30 1   
    20     8    22 ar  
    21     8    34 1   
    22     9    70 1   
    23    10    12 1   
    24    10    13 1   
    25    10    43 1   
    26    10    44 1   
    27    11    13 1   
    28    11    26 1   
    29    11    45 1   
    30    11    46 1   
    31    12    36 1   
    32    12    47 1   
    33    12    48 1   
    34    13    29 1   
    35    13    49 1   
    36    14    30 1   
    37    14    50 1   
    38    14    51 1   
    39    14    52 1   
    40    15    35 1   
    41    15    53 1   
    42    15    54 1   
    43    15    55 1   
    44    16    17 ar  
    45    16    18 ar  
    46    16    56 1   
    47    17    57 1   
    48    18    58 1   
    49    19    20 ar  
    50    19    31 ar  
    51    19    59 1   
    52    20    24 1   
    53    21    29 1   
    54    22    31 ar  
    55    23    34 1   
    56    24    25 2   
    57    24    35 1   
    58    25    27 1   
    59    25    32 1   
    60    26    36 1   
    61    26    60 1   
    62    26    61 1   
    63    27    62 1   
    64    27    63 1   
    65    27    64 1   
    66    28    30 1   
    67    28    65 1   
    68    28    66 1   
    69    28    67 1   
    70    29    34 1   
    71    29    68 1   
    72    30    37 1   
    73    32    33 2   
    74    33    35 1   
    75    37    69 1   
@<TRIPOS>SUBSTRUCTURE
     1 PQF         1 TEMP              0 ****  ****    0 ROOT
