@<TRIPOS>MOLECULE
PQF
   70    75     1     0     0
SMALL
No Charge or Current Charge


@<TRIPOS>ATOM
      1 C4           1.5180    -9.2410   -24.7450 ca         1 PQF      -0.095000
      2 C5           3.5420   -10.4560   -25.3200 ca         1 PQF      -0.095000
      3 C6           2.4970    -4.9790   -21.2870 ca         1 PQF      -0.067000
      4 C7           5.0010    -9.1080   -22.4930 ca         1 PQF      -0.076000
      5 C8           2.3750    -5.1020   -24.1300 ca         1 PQF      -0.119000
      6 C10          3.0730    -6.0540   -21.9830 cp         1 PQF      -0.173500
      7 C13          1.7650    -4.0060   -23.4520 ca         1 PQF      -0.099300
      8 C15          4.2140    -7.9600   -22.6280 ca         1 PQF      -0.035200
      9 C17          1.8490    -3.9650   -22.0220 ca         1 PQF       0.128000
     10 C20          5.6490    -6.3890   -25.7810 c6         1 PQF      -0.110400
     11 C21          4.7880    -8.1380   -27.4030 c6         1 PQF      -0.110400
     12 C22          6.9410    -6.3260   -26.6300 c6         1 PQF       0.154100
     13 C24          4.9690    -7.7900   -25.8920 c6         1 PQF      -0.073700
     14 C26          1.8350    -1.5440   -24.1210 c3         1 PQF      -0.100100
     15 C28          7.8400    -9.8470   -19.1450 c3         1 PQF       0.065900
     16 C1           1.4620   -11.6660   -24.9390 ca         1 PQF      -0.097000
     17 C2           0.8080   -10.4520   -24.6800 ca         1 PQF      -0.110000
     18 C3           2.8280   -11.6660   -25.2590 ca         1 PQF      -0.110000
     19 C9           4.9030    -8.6400   -20.0930 ca         1 PQF       0.312900
     20 C11          5.3510    -9.4650   -21.1680 ca         1 PQF      -0.049000
     21 C12          2.8920    -9.2250   -25.0690 ca         1 PQF      -0.108300
     22 C14          3.8200    -7.2160   -21.5210 cp         1 PQF       0.344500
     23 C16          3.0010    -6.1000   -23.3710 ca         1 PQF      -0.004200
     24 C18          6.1690   -10.6530   -20.9080 cc         1 PQF      -0.139000
     25 C19          5.9610   -11.8910   -21.4550 cd         1 PQF       0.225300
     26 C23          6.1230    -7.9970   -28.1710 c6         1 PQF       0.154100
     27 C25          4.9270   -12.3470   -22.4500 c3         1 PQF      -0.111400
     28 C27         -0.4210    -2.6990   -23.8180 c3         1 PQF      -0.100100
     29 C29          3.6130    -7.8640   -25.1020 c3         1 PQF       0.150600
     30 C30          1.0570    -2.8740   -24.2470 c3         1 PQF       0.232300
     31 N31          4.1480    -7.5200   -20.2540 nb         1 PQF      -0.612000
     32 N32          6.8780   -12.7670   -20.9080 nd         1 PQF      -0.361000
     33 N33          7.6260   -12.1330   -20.0390 nc         1 PQF      -0.198800
     34 N34          3.6840    -7.2780   -23.7410 na         1 PQF      -0.095600
     35 N35          7.1940   -10.8400   -20.0130 na         1 PQF       0.125800
     36 O36          6.6470    -6.6630   -28.0010 os         1 PQF      -0.454000
     37 O37          1.0190    -3.1820   -25.6430 oh         1 PQF      -0.664000
     38 H42          0.9970    -8.3090   -24.5370 ha         1 PQF       0.115500
     39 H43          4.6000   -10.4950   -25.5610 ha         1 PQF       0.115500
     40 H44          2.5560    -4.9240   -20.2030 ha         1 PQF       0.150000
     41 H45          5.3400    -9.6790   -23.3500 ha         1 PQF       0.135000
     42 H46          2.3760    -5.1740   -25.2140 ha         1 PQF       0.132000
     43 H48          5.9030    -6.1620   -24.7370 hc         1 PQF       0.057950
     44 H49          4.9560    -5.6040   -26.1130 hc         1 PQF       0.057950
     45 H50          4.0420    -7.4700   -27.8550 hc         1 PQF       0.057950
     46 H51          4.4050    -9.1570   -27.5340 hc         1 PQF       0.057950
     47 H53          7.6930    -7.0250   -26.2360 h1         1 PQF       0.047950
     48 H52          7.3650    -5.3120   -26.5940 h1         1 PQF       0.047950
     49 H56          5.6530    -8.5190   -25.4370 hc         1 PQF       0.054700
     50 H60          1.8410    -1.1770   -23.0900 hc         1 PQF       0.050700
     51 H61          2.8760    -1.6770   -24.4400 hc         1 PQF       0.050700
     52 H62          1.3830    -0.7670   -24.7490 hc         1 PQF       0.050700
     53 H68          8.8810   -10.1370   -18.9580 h1         1 PQF       0.065700
     54 H66          7.8250    -8.8650   -19.6320 h1         1 PQF       0.065700
     55 H67          7.3030    -9.7900   -18.1910 h1         1 PQF       0.065700
     56 H39          0.9130   -12.6030   -24.8900 ha         1 PQF       0.119000
     57 H40         -0.2510   -10.4480   -24.4290 ha         1 PQF       0.118500
     58 H41          3.3380   -12.6070   -25.4570 ha         1 PQF       0.118500
     59 H47          5.1540    -8.8930   -19.0640 h4         1 PQF       0.023100
     60 H55          5.9620    -8.1840   -29.2430 h1         1 PQF       0.047950
     61 H54          6.8570    -8.7280   -27.8020 h1         1 PQF       0.047950
     62 H58          4.7000   -13.4130   -22.3260 hc         1 PQF       0.049700
     63 H57          3.9880   -11.7950   -22.3310 hc         1 PQF       0.049700
     64 H59          5.2830   -12.1990   -23.4750 hc         1 PQF       0.049700
     65 H63         -0.5090    -2.2770   -22.8120 hc         1 PQF       0.050700
     66 H64         -0.9450    -2.0170   -24.4980 hc         1 PQF       0.050700
     67 H65         -0.9460    -3.6620   -23.8290 hc         1 PQF       0.050700
     68 H69          2.9390    -7.2160   -25.6740 h1         1 PQF       0.072700
     69 H70          0.4310    -3.9600   -25.7410 ho         1 PQF       0.440000
     70 F38          1.3220    -2.9350   -21.3240 f          1 PQF      -0.187000
@<TRIPOS>BOND
     1     1    17 ar  
     2     1    21 ar  
     3     1    38 1   
     4     2    18 ar  
     5     2    21 ar  
     6     2    39 1   
     7     3     6 ar  
     8     3     9 ar  
     9     3    40 1   
    10     4     8 ar  
    11     4    20 ar  
    12     4    41 1   
    13     5     7 ar  
    14     5    23 ar  
    15     5    42 1   
    16     6    22 1   
    17     6    23 ar  
    18     7     9 ar  
    19     7    30 1   
    20     8    22 ar  
    21     8    34 1   
    22     9    70 1   
    23    10    12 1   
    24    10    13 1   
    25    10    43 1   
    26    10    44 1   
    27    11    13 1   
    28    11    26 1   
    29    11    45 1   
    30    11    46 1   
    31    12    36 1   
    32    12    47 1   
    33    12    48 1   
    34    13    29 1   
    35    13    49 1   
    36    14    30 1   
    37    14    50 1   
    38    14    51 1   
    39    14    52 1   
    40    15    35 1   
    41    15    53 1   
    42    15    54 1   
    43    15    55 1   
    44    16    17 ar  
    45    16    18 ar  
    46    16    56 1   
    47    17    57 1   
    48    18    58 1   
    49    19    20 ar  
    50    19    31 ar  
    51    19    59 1   
    52    20    24 1   
    53    21    29 1   
    54    22    31 ar  
    55    23    34 1   
    56    24    25 2   
    57    24    35 1   
    58    25    27 1   
    59    25    32 1   
    60    26    36 1   
    61    26    60 1   
    62    26    61 1   
    63    27    62 1   
    64    27    63 1   
    65    27    64 1   
    66    28    30 1   
    67    28    65 1   
    68    28    66 1   
    69    28    67 1   
    70    29    34 1   
    71    29    68 1   
    72    30    37 1   
    73    32    33 2   
    74    33    35 1   
    75    37    69 1   
@<TRIPOS>SUBSTRUCTURE
     1 PQF         1 TEMP              0 ****  ****    0 ROOT
