@<TRIPOS>MOLECULE
PQG
   32    33     1     0     0
SMALL
No Charge or Current Charge


@<TRIPOS>ATOM
      1 CA0          2.2510    -0.2410    -0.0810 ca         1 PQG      -0.048300
      2 CA1          2.7200     1.0290     0.3160 ca         1 PQG      -0.110000
      3 CA2          4.0990     1.2900     0.3880 ca         1 PQG      -0.119500
      4 CA3          5.0230     0.2830     0.0630 ca         1 PQG      -0.132000
      5 CA4          4.5660    -0.9840    -0.3340 ca         1 PQG      -0.119500
      6 CA5          3.1870    -1.2450    -0.4060 ca         1 PQG      -0.110000
      7 NA6         -2.2530     1.6000     0.5350 n8         1 PQG      -0.999200
      8 C92         -3.7390    -0.4080    -0.0880 c          1 PQG       0.696000
      9 O93         -4.3450    -0.6790     0.9430 o          1 PQG      -0.731500
     10 C94         -2.2450     0.1560     0.0790 c6         1 PQG       0.031200
     11 C95         -1.4870     0.0330    -1.2900 c6         1 PQG      -0.050400
     12 C96          0.0290     0.3610    -1.2040 c6         1 PQG      -0.058400
     13 C97          0.7450    -0.5380    -0.1630 c6         1 PQG      -0.019400
     14 C98          0.0480    -0.4030     1.2150 c6         1 PQG      -0.058400
     15 C99         -1.4680    -0.7280     1.1180 c6         1 PQG      -0.050400
     16 HA11         2.0150     1.8180     0.5710 ha         1 PQG       0.116000
     17 HA21         4.4510     2.2720     0.6960 ha         1 PQG       0.099000
     18 HA31         6.0900     0.4850     0.1180 ha         1 PQG       0.096000
     19 HA41         5.2810    -1.7650    -0.5860 ha         1 PQG       0.099000
     20 HA51         2.8470    -2.2310    -0.7150 ha         1 PQG       0.116000
     21 HA61        -2.8150     2.1380    -0.1330 hn         1 PQG       0.383000
     22 HA62        -2.8060     1.6540     1.3970 hn         1 PQG       0.383000
     23 H952        -1.6060    -0.9890    -1.6780 hc         1 PQG       0.041450
     24 H951        -1.9500     0.6900    -2.0390 hc         1 PQG       0.041450
     25 H962         0.4890     0.2190    -2.1910 hc         1 PQG       0.027450
     26 H961         0.1660     1.4220    -0.9520 hc         1 PQG       0.027450
     27 H971         0.6200    -1.5800    -0.4920 hc         1 PQG       0.044700
     28 H982         0.5210    -1.0850     1.9340 hc         1 PQG       0.027450
     29 H981         0.1860     0.6100     1.6160 hc         1 PQG       0.027450
     30 H992        -1.9170    -0.6220     2.1150 hc         1 PQG       0.041450
     31 H991        -1.5860    -1.7880     0.8500 hc         1 PQG       0.041450
     32 OXT         -4.3610    -0.0490    -1.0810 o          1 PQG      -0.731500
@<TRIPOS>BOND
     1     1     2 ar  
     2     1     6 ar  
     3     1    13 1   
     4     2     3 ar  
     5     2    16 1   
     6     3     4 ar  
     7     3    17 1   
     8     4     5 ar  
     9     4    18 1   
    10     5     6 ar  
    11     5    19 1   
    12     6    20 1   
    13     7    10 1   
    14     7    21 1   
    15     7    22 1   
    16     8     9 1   
    17     8    10 1   
    18     8    32 1   
    19    10    11 1   
    20    10    15 1   
    21    11    12 1   
    22    11    23 1   
    23    11    24 1   
    24    12    13 1   
    25    12    25 1   
    26    12    26 1   
    27    13    14 1   
    28    13    27 1   
    29    14    15 1   
    30    14    28 1   
    31    14    29 1   
    32    15    30 1   
    33    15    31 1   
@<TRIPOS>SUBSTRUCTURE
     1 PQG         1 TEMP              0 ****  ****    0 ROOT
