@<TRIPOS>MOLECULE
PQG
   32    33     1     0     0
SMALL
bcc


@<TRIPOS>ATOM
      1 CA0          2.1870    -0.2540    -0.0300 ca         1 PQG      -0.048300
      2 CA1          2.6620     1.0060     0.3380 ca         1 PQG      -0.128000
      3 CA2          4.0230     1.2740     0.3730 ca         1 PQG      -0.137500
      4 CA3          4.9410     0.2860     0.0370 ca         1 PQG      -0.150000
      5 CA4          4.4830    -0.9700    -0.3350 ca         1 PQG      -0.137500
      6 CA5          3.1190    -1.2330    -0.3660 ca         1 PQG      -0.128000
      7 NA6         -2.0790     1.6160     0.3370 n8         1 PQG      -0.888800
      8 C92         -3.6620    -0.3080    -0.0740 c          1 PQG       0.906600
      9 O93         -3.8270    -1.5380    -0.2160 o          1 PQG      -0.836800
     10 C94         -2.1910     0.1890     0.0540 c6         1 PQG       0.031200
     11 C95         -1.4700    -0.0940    -1.2740 c6         1 PQG      -0.050400
     12 C96          0.0200     0.2190    -1.2150 c6         1 PQG      -0.058400
     13 C97          0.7090    -0.5480    -0.0820 c6         1 PQG      -0.019400
     14 C98          0.0100    -0.2670     1.2510 c6         1 PQG      -0.058400
     15 C99         -1.4800    -0.5800     1.1740 c6         1 PQG      -0.050400
     16 HA11         1.9610     1.7900     0.6020 ha         1 PQG       0.134000
     17 HA21         4.3690     2.2570     0.6670 ha         1 PQG       0.117000
     18 HA31         6.0030     0.4950     0.0660 ha         1 PQG       0.114000
     19 HA41         5.1880    -1.7480    -0.6010 ha         1 PQG       0.117000
     20 HA51         2.7720    -2.2170    -0.6610 ha         1 PQG       0.134000
     21 HA61        -2.6920     2.1110    -0.3000 hn         1 PQG       0.327800
     22 HA62        -2.4750     1.7960     1.2530 hn         1 PQG       0.327800
     23 H952        -1.6110    -1.1460    -1.5350 hc         1 PQG       0.041450
     24 H951        -1.9370     0.4870    -2.0770 hc         1 PQG       0.041450
     25 H962         0.4890    -0.0390    -2.1700 hc         1 PQG       0.027450
     26 H961         0.1640     1.2920    -1.0710 hc         1 PQG       0.027450
     27 H971         0.5940    -1.6190    -0.2950 hc         1 PQG       0.044700
     28 H982         0.4740    -0.8650     2.0410 hc         1 PQG       0.027450
     29 H981         0.1510     0.7810     1.5290 hc         1 PQG       0.027450
     30 H992        -1.9530    -0.3500     2.1360 hc         1 PQG       0.041450
     31 H991        -1.6200    -1.6500     1.0100 hc         1 PQG       0.041450
     32 OXT         -4.5660     0.5520    -0.0450 o          1 PQG      -0.836800
@<TRIPOS>BOND
     1     1     2 ar  
     2     1     6 ar  
     3     1    13 1   
     4     2     3 ar  
     5     2    16 1   
     6     3     4 ar  
     7     3    17 1   
     8     4     5 ar  
     9     4    18 1   
    10     5     6 ar  
    11     5    19 1   
    12     6    20 1   
    13     7    10 1   
    14     7    21 1   
    15     7    22 1   
    16     8     9 1   
    17     8    10 1   
    18     8    32 1   
    19    10    11 1   
    20    10    15 1   
    21    11    12 1   
    22    11    23 1   
    23    11    24 1   
    24    12    13 1   
    25    12    25 1   
    26    12    26 1   
    27    13    14 1   
    28    13    27 1   
    29    14    15 1   
    30    14    28 1   
    31    14    29 1   
    32    15    30 1   
    33    15    31 1   
@<TRIPOS>SUBSTRUCTURE
     1 PQG         1 TEMP              0 ****  ****    0 ROOT
