@<TRIPOS>MOLECULE
PQH
   18    18     1     0     0
SMALL
bcc


@<TRIPOS>ATOM
      1 N            1.9850    -4.2600     4.0830 na         1 PQH      -0.159100
      2 C            1.3830    -5.7090     5.6410 cc         1 PQH      -0.076000
      3 O            3.0960    -6.7120     7.7280 o          1 PQH      -0.835300
      4 C1           0.9440    -5.0190     4.5420 cd         1 PQH      -0.322600
      5 C2          -0.3920    -4.9860     3.9250 c3         1 PQH       0.751200
      6 C3           3.0790    -4.4500     4.8590 cd         1 PQH      -0.065600
      7 C4           2.7370    -5.3540     5.8550 cc         1 PQH      -0.193600
      8 C5           3.6100    -5.8690     6.9630 c          1 PQH       0.944200
      9 C6           4.3540    -3.7440     4.5570 c3         1 PQH      -0.008800
     10 F           -1.0780    -3.8580     4.1990 f          1 PQH      -0.251633
     11 F1          -1.1440    -6.0030     4.3580 f          1 PQH      -0.251633
     12 F2          -0.3450    -5.0600     2.5840 f          1 PQH      -0.251633
     13 O1           4.7710    -5.4110     7.0290 o          1 PQH      -0.835300
     14 H1           1.9620    -3.6550     3.2760 hn         1 PQH       0.274700
     15 H2           0.8010    -6.3930     6.2370 ha         1 PQH       0.163000
     16 H5           4.6390    -3.0740     5.3670 hc         1 PQH       0.039033
     17 H3           5.1740    -4.4480     4.4240 hc         1 PQH       0.039033
     18 H4           4.2660    -3.1510     3.6470 hc         1 PQH       0.039033
@<TRIPOS>BOND
     1     1     4 1   
     2     1     6 1   
     3     1    14 1   
     4     2     4 2   
     5     2     7 1   
     6     2    15 1   
     7     3     8 1   
     8     4     5 1   
     9     5    10 1   
    10     5    11 1   
    11     5    12 1   
    12     6     7 2   
    13     6     9 1   
    14     7     8 1   
    15     8    13 1   
    16     9    16 1   
    17     9    17 1   
    18     9    18 1   
@<TRIPOS>SUBSTRUCTURE
     1 PQH         1 TEMP              0 ****  ****    0 ROOT
