@<TRIPOS>MOLECULE
PQH
   18    18     1     0     0
SMALL
No Charge or Current Charge


@<TRIPOS>ATOM
      1 N            1.9790    -4.2330     4.0470 na         1 PQH      -0.108000
      2 C            1.3900    -5.6610     5.6330 cc         1 PQH      -0.058000
      3 O            3.0860    -6.6390     7.7310 o          1 PQH      -0.730000
      4 C1           0.9090    -5.0010     4.5350 cd         1 PQH      -0.373300
      5 C2          -0.4720    -5.0270     3.9180 c3         1 PQH       0.387300
      6 C3           3.1130    -4.4290     4.8460 cd         1 PQH      -0.116300
      7 C4           2.7450    -5.3180     5.8340 cc         1 PQH      -0.193600
      8 C5           3.5920    -5.8520     6.9430 c          1 PQH       0.733600
      9 C6           4.4300    -3.7410     4.5790 c3         1 PQH      -0.008800
     10 F           -1.1800    -3.9230     4.2430 f          1 PQH      -0.130333
     11 F1          -1.1900    -6.0970     4.3300 f          1 PQH      -0.130333
     12 F2          -0.4180    -5.0830     2.5680 f          1 PQH      -0.130333
     13 O1           4.7580    -5.4980     7.0390 o          1 PQH      -0.730000
     14 H1           1.9420    -3.6240     3.2340 hn         1 PQH       0.325000
     15 H2           0.8300    -6.3460     6.2660 ha         1 PQH       0.145000
     16 H5           4.7290    -3.1190     5.4310 hc         1 PQH       0.039033
     17 H3           5.2270    -4.4730     4.3980 hc         1 PQH       0.039033
     18 H4           4.3720    -3.0910     3.6980 hc         1 PQH       0.039033
@<TRIPOS>BOND
     1     1     4 1   
     2     1     6 1   
     3     1    14 1   
     4     2     4 2   
     5     2     7 1   
     6     2    15 1   
     7     3     8 1   
     8     4     5 1   
     9     5    10 1   
    10     5    11 1   
    11     5    12 1   
    12     6     7 2   
    13     6     9 1   
    14     7     8 1   
    15     8    13 1   
    16     9    16 1   
    17     9    17 1   
    18     9    18 1   
@<TRIPOS>SUBSTRUCTURE
     1 PQH         1 TEMP              0 ****  ****    0 ROOT
