@<TRIPOS>MOLECULE
PQI
   55    59     1     0     0
SMALL
No Charge or Current Charge


@<TRIPOS>ATOM
      1 C1           6.2800    -7.9190     0.9040 c3         1 PQI      -0.154400
      2 C2           7.5320    -8.7720     0.6290 c          1 PQI       0.603100
      3 C3           6.4240   -10.9110     1.4220 c6         1 PQI       0.066000
      4 C7           8.8550   -15.5590     3.3570 ca         1 PQI      -0.089000
      5 C8           9.4340   -16.8340     3.4050 ca         1 PQI      -0.123000
      6 C9          10.0470   -17.3950     2.2660 cp         1 PQI       0.003000
      7 C10         10.0690   -16.6390     1.0680 ca         1 PQI       0.103000
      8 C11          9.5070   -15.3420     1.0140 ca         1 PQI       0.153100
      9 C12          9.7550   -13.2290    -0.2450 c3         1 PQI       0.167600
     10 C13          8.3810   -12.5050    -0.0890 c6         1 PQI       0.135500
     11 C14          8.6290   -10.9920     0.2210 c6         1 PQI       0.059000
     12 C15         10.6480   -18.7560     2.3440 cp         1 PQI       0.007000
     13 C16         12.0480   -18.9600     2.5050 ca         1 PQI      -0.065300
     14 C19         10.3310   -21.1860     2.3330 ca         1 PQI      -0.067000
     15 C20          9.8330   -19.9050     2.2690 ca         1 PQI      -0.130000
     16 C21          8.4270   -20.0600     2.1160 cc         1 PQI      -0.185100
     17 C22         13.0090   -17.7820     2.6180 c3         1 PQI      -0.046800
     18 Cl          10.8190   -17.3190    -0.3860 cl         1 PQI      -0.183000
     19 C6           8.8750   -14.7970     2.1710 ca         1 PQI      -0.133300
     20 C5           8.1430   -13.4540     2.1940 c3         1 PQI       0.226100
     21 O1           9.6100   -14.6600    -0.1890 os         1 PQI      -0.324100
     22 N1           7.4820   -13.1490     0.9090 n3         1 PQI      -0.727600
     23 C4           6.2080   -12.3920     1.0190 c6         1 PQI       0.158800
     24 N            7.4180   -10.1830     0.5700 n          1 PQI      -0.413800
     25 O            8.6040    -8.2230     0.4080 o          1 PQI      -0.611100
     26 C            6.1430    -7.5670     2.4030 c3         1 PQI      -0.086100
     27 N2           8.1800   -21.4290     2.1000 na         1 PQI      -0.000500
     28 N3           9.3540   -22.1780     2.2340 nc         1 PQI      -0.283400
     29 C18         11.7090   -21.3950     2.4830 ca         1 PQI      -0.074000
     30 C17         12.5650   -20.2780     2.5700 ca         1 PQI      -0.100000
     31 H1           6.3560    -6.9830     0.3390 hc         1 PQI       0.064700
     32 H2           5.3750    -8.4560     0.6030 hc         1 PQI       0.064700
     33 H3           6.7690   -10.8740     2.4650 h1         1 PQI       0.053200
     34 H4           5.4460   -10.4170     1.3910 h1         1 PQI       0.053200
     35 H5           8.3750   -15.1640     4.2510 ha         1 PQI       0.112000
     36 H6           9.4050   -17.4030     4.3310 ha         1 PQI       0.126000
     37 H7          10.4440   -12.8930     0.5400 h1         1 PQI       0.059700
     38 H8          10.1870   -12.9310    -1.2090 h1         1 PQI       0.059700
     39 H9           7.8910   -12.5540    -1.0740 h1         1 PQI       0.086700
     40 H10          9.3370   -10.9110     1.0570 h1         1 PQI       0.066700
     41 H11          9.1220   -10.5410    -0.6530 h1         1 PQI       0.066700
     42 H12          7.6180   -19.3420     2.0210 h4         1 PQI       0.231000
     43 H13         13.1330   -17.2820     1.6500 hc         1 PQI       0.044367
     44 H14         12.6430   -17.0380     3.3360 hc         1 PQI       0.044367
     45 H15         14.0030   -18.0970     2.9560 hc         1 PQI       0.044367
     46 H16          8.8420   -12.6580     2.4850 h1         1 PQI       0.039700
     47 H17          7.3840   -13.5050     2.9870 h1         1 PQI       0.039700
     48 H19          5.6860   -12.4090     0.0510 h1         1 PQI       0.063700
     49 H20          5.5320   -12.8690     1.7430 h1         1 PQI       0.063700
     50 H21          5.2530    -6.9500     2.5720 hc         1 PQI       0.041033
     51 H22          6.0510    -8.4730     3.0140 hc         1 PQI       0.041033
     52 H23          7.0190    -7.0060     2.7500 hc         1 PQI       0.041033
     53 H24          7.2760   -21.8850     2.0040 hn         1 PQI       0.371000
     54 H25         12.1120   -22.4030     2.5340 ha         1 PQI       0.127000
     55 H26         13.6340   -20.4380     2.6900 ha         1 PQI       0.111000
@<TRIPOS>BOND
     1     1     2 1   
     2     1    26 1   
     3     1    31 1   
     4     1    32 1   
     5     2    24 1   
     6     2    25 2   
     7     3    23 1   
     8     3    24 1   
     9     3    33 1   
    10     3    34 1   
    11     4     5 ar  
    12     4    19 ar  
    13     4    35 1   
    14     5     6 ar  
    15     5    36 1   
    16     6     7 ar  
    17     6    12 1   
    18     7     8 ar  
    19     7    18 1   
    20     8    19 ar  
    21     8    21 1   
    22     9    10 1   
    23     9    21 1   
    24     9    37 1   
    25     9    38 1   
    26    10    11 1   
    27    10    22 1   
    28    10    39 1   
    29    11    24 1   
    30    11    40 1   
    31    11    41 1   
    32    12    13 ar  
    33    12    15 ar  
    34    13    17 1   
    35    13    30 ar  
    36    14    15 ar  
    37    14    28 2   
    38    14    29 ar  
    39    15    16 2   
    40    16    27 1   
    41    16    42 1   
    42    17    43 1   
    43    17    44 1   
    44    17    45 1   
    45    19    20 1   
    46    20    22 1   
    47    20    46 1   
    48    20    47 1   
    49    22    23 1   
    50    23    48 1   
    51    23    49 1   
    52    26    50 1   
    53    26    51 1   
    54    26    52 1   
    55    27    28 1   
    56    27    53 1   
    57    29    30 ar  
    58    29    54 1   
    59    30    55 1   
@<TRIPOS>SUBSTRUCTURE
     1 PQI         1 TEMP              0 ****  ****    0 ROOT
