@<TRIPOS>MOLECULE
PQI
   55    59     1     0     0
SMALL
abcg2


@<TRIPOS>ATOM
      1 C1           5.9160    -8.3470     0.3900 c3         1 PQI      -0.154400
      2 C2           7.2380    -9.0570     0.1680 c          1 PQI       0.603100
      3 C3           6.6200   -10.7980     1.8700 c6         1 PQI       0.066000
      4 C7           8.9250   -15.6680     3.5000 ca         1 PQI      -0.089000
      5 C8           9.4720   -16.9390     3.4380 ca         1 PQI      -0.123000
      6 C9          10.0930   -17.3900     2.2720 cp         1 PQI       0.003000
      7 C10         10.1450   -16.5150     1.1900 ca         1 PQI       0.103000
      8 C11          9.6090   -15.2200     1.2470 ca         1 PQI       0.153100
      9 C12          9.8790   -13.0490     0.2900 c3         1 PQI       0.167600
     10 C13          8.5450   -12.3300     0.3800 c6         1 PQI       0.135500
     11 C14          8.7840   -10.8580     0.7510 c6         1 PQI       0.059000
     12 C15         10.6430   -18.7690     2.2120 cp         1 PQI       0.007000
     13 C16         11.9920   -19.0500     2.2800 ca         1 PQI      -0.065300
     14 C19         10.2050   -21.2070     2.0370 ca         1 PQI      -0.067000
     15 C20          9.7390   -19.8560     2.0940 ca         1 PQI      -0.130000
     16 C21          8.3510   -19.9640     1.9990 cc         1 PQI      -0.185100
     17 C22         13.0310   -17.9670     2.3920 c3         1 PQI      -0.046800
     18 CL          10.8910   -17.0330    -0.3050 cl         1 PQI      -0.183000
     19 C6           8.9700   -14.7910     2.4180 ca         1 PQI      -0.133300
     20 C5           8.2850   -13.4430     2.5520 c3         1 PQI       0.226100
     21 O1           9.7260   -14.4630     0.1210 os         1 PQI      -0.324100
     22 N1           7.6450   -13.0140     1.3110 n3         1 PQI      -0.727600
     23 C4           6.4050   -12.2620     1.4790 c6         1 PQI       0.158800
     24 N            7.5100   -10.1640     0.9000 n          1 PQI      -0.413800
     25 O            8.0540    -8.5960    -0.6410 o          1 PQI      -0.611100
     26 C            5.9570    -7.4410     1.6270 c3         1 PQI      -0.086100
     27 N2           8.0920   -21.2800     1.9010 na         1 PQI      -0.000500
     28 N3           9.1780   -22.0740     1.9190 nc         1 PQI      -0.283400
     29 C18         11.5900   -21.4770     2.1050 ca         1 PQI      -0.074000
     30 C17         12.4380   -20.4080     2.2250 ca         1 PQI      -0.100000
     31 H1           5.7490    -7.7440    -0.5010 hc         1 PQI       0.064700
     32 H2           5.0890    -9.0530     0.4640 hc         1 PQI       0.064700
     33 H3           7.0790   -10.7340     2.8620 h1         1 PQI       0.053200
     34 H4           5.6670   -10.2850     1.9110 h1         1 PQI       0.053200
     35 H5           8.4270   -15.3470     4.4070 ha         1 PQI       0.112000
     36 H6           9.4140   -17.6020     4.2910 ha         1 PQI       0.126000
     37 H7          10.4950   -12.8570     1.1720 h1         1 PQI       0.059700
     38 H8          10.4250   -12.7030    -0.5860 h1         1 PQI       0.059700
     39 H9           8.0600   -12.3520    -0.6020 h1         1 PQI       0.086700
     40 H10          9.3320   -10.7960     1.6970 h1         1 PQI       0.066700
     41 H11          9.3640   -10.3560    -0.0170 h1         1 PQI       0.066700
     42 H12          7.5650   -19.2280     1.9950 h4         1 PQI       0.231000
     43 H13         13.4750   -17.7530     1.4150 hc         1 PQI       0.044367
     44 H14         12.6090   -17.0380     2.7720 hc         1 PQI       0.044367
     45 H15         13.8410   -18.2770     3.0560 hc         1 PQI       0.044367
     46 H16          8.9900   -12.7020     2.9530 h1         1 PQI       0.039700
     47 H17          7.5080   -13.5500     3.3080 h1         1 PQI       0.039700
     48 H19          5.8660   -12.2860     0.5260 h1         1 PQI       0.063700
     49 H20          5.7870   -12.7580     2.2280 h1         1 PQI       0.063700
     50 H21          5.0210    -6.8870     1.7200 hc         1 PQI       0.041033
     51 H22          6.1010    -8.0160     2.5430 hc         1 PQI       0.041033
     52 H23          6.7730    -6.7200     1.5490 hc         1 PQI       0.041033
     53 H24          7.1790   -21.7000     1.8160 hn         1 PQI       0.371000
     54 H25         11.9630   -22.4920     2.0670 ha         1 PQI       0.127000
     55 H26         13.5050   -20.5860     2.2870 ha         1 PQI       0.111000
@<TRIPOS>BOND
     1     1     2 1   
     2     1    26 1   
     3     1    31 1   
     4     1    32 1   
     5     2    24 1   
     6     2    25 2   
     7     3    23 1   
     8     3    24 1   
     9     3    33 1   
    10     3    34 1   
    11     4     5 ar  
    12     4    19 ar  
    13     4    35 1   
    14     5     6 ar  
    15     5    36 1   
    16     6     7 ar  
    17     6    12 1   
    18     7     8 ar  
    19     7    18 1   
    20     8    19 ar  
    21     8    21 1   
    22     9    10 1   
    23     9    21 1   
    24     9    37 1   
    25     9    38 1   
    26    10    11 1   
    27    10    22 1   
    28    10    39 1   
    29    11    24 1   
    30    11    40 1   
    31    11    41 1   
    32    12    13 ar  
    33    12    15 ar  
    34    13    17 1   
    35    13    30 ar  
    36    14    15 ar  
    37    14    28 2   
    38    14    29 ar  
    39    15    16 2   
    40    16    27 1   
    41    16    42 1   
    42    17    43 1   
    43    17    44 1   
    44    17    45 1   
    45    19    20 1   
    46    20    22 1   
    47    20    46 1   
    48    20    47 1   
    49    22    23 1   
    50    23    48 1   
    51    23    49 1   
    52    26    50 1   
    53    26    51 1   
    54    26    52 1   
    55    27    28 1   
    56    27    53 1   
    57    29    30 ar  
    58    29    54 1   
    59    30    55 1   
@<TRIPOS>SUBSTRUCTURE
     1 PQI         1 TEMP              0 ****  ****    0 ROOT
