@<TRIPOS>MOLECULE
PQK
   25    26     1     0     0
SMALL
No Charge or Current Charge


@<TRIPOS>ATOM
      1 C            0.4240    -4.2920     4.1360 c3         1 PQK       0.000200
      2 O            6.2100    -5.2930     5.8780 o          1 PQK      -0.736500
      3 N            1.9750    -5.7920     5.5680 na         1 PQK       0.015000
      4 C1           1.7550    -4.7270     4.6930 cc         1 PQK      -0.226300
      5 C2           2.9930    -4.1960     4.4660 cd         1 PQK      -0.128000
      6 C7           0.9050    -8.1920     5.9740 cx         1 PQK      -0.143400
      7 C6          -0.1180    -7.3940     5.2090 cx         1 PQK      -0.143400
      8 C5           0.9080    -6.6810     6.0640 cx         1 PQK       0.035300
      9 C4           3.3270    -5.8940     5.9290 cc         1 PQK      -0.143300
     10 C3           3.9730    -4.9010     5.2100 cd         1 PQK      -0.174600
     11 C8           3.8840    -6.9050     6.9080 c3         1 PQK      -0.018800
     12 C9           5.4480    -4.6070     5.2120 c          1 PQK       0.731600
     13 O1           5.8460    -3.6770     4.5240 o          1 PQK      -0.736500
     14 H1           0.1040    -4.9540     3.3240 hc         1 PQK       0.021700
     15 H2          -0.3520    -4.2990     4.9110 hc         1 PQK       0.021700
     16 H3           0.4820    -3.2730     3.7340 hc         1 PQK       0.021700
     17 H5           3.1950    -3.3510     3.8150 ha         1 PQK       0.131000
     18 H6           0.5710    -8.7470     6.8470 hc         1 PQK       0.071950
     19 H7           1.7020    -8.6660     5.4070 hc         1 PQK       0.071950
     20 H8          -1.1460    -7.4070     5.5630 hc         1 PQK       0.071950
     21 H9          -0.0080    -7.3430     4.1290 hc         1 PQK       0.071950
     22 H10          0.5550    -6.2390     6.9950 h1         1 PQK       0.070700
     23 H11          3.1000    -7.3690     7.5170 hc         1 PQK       0.038033
     24 H12          4.4170    -7.7050     6.3810 hc         1 PQK       0.038033
     25 H13          4.5820    -6.4330     7.6080 hc         1 PQK       0.038033
@<TRIPOS>BOND
     1     1     4 1   
     2     1    14 1   
     3     1    15 1   
     4     1    16 1   
     5     2    12 1   
     6     3     4 1   
     7     3     8 1   
     8     3     9 1   
     9     4     5 2   
    10     5    10 1   
    11     5    17 1   
    12     6     7 1   
    13     6     8 1   
    14     6    18 1   
    15     6    19 1   
    16     7     8 1   
    17     7    20 1   
    18     7    21 1   
    19     8    22 1   
    20     9    10 2   
    21     9    11 1   
    22    10    12 1   
    23    11    23 1   
    24    11    24 1   
    25    11    25 1   
    26    12    13 1   
@<TRIPOS>SUBSTRUCTURE
     1 PQK         1 TEMP              0 ****  ****    0 ROOT
