@<TRIPOS>MOLECULE
PQK
   25    26     1     0     0
SMALL
bcc


@<TRIPOS>ATOM
      1 C            0.4280    -4.3540     4.1960 c3         1 PQK       0.000200
      2 O            6.1850    -5.2420     5.9960 o          1 PQK      -0.841800
      3 N            1.9620    -5.8230     5.5600 na         1 PQK      -0.057100
      4 C1           1.7660    -4.7610     4.7050 cc         1 PQK      -0.175600
      5 C2           2.9880    -4.1920     4.4830 cd         1 PQK      -0.146000
      6 C7           1.0070    -8.1370     5.9320 cx         1 PQK      -0.143400
      7 C6          -0.0030    -7.3650     5.1500 cx         1 PQK      -0.143400
      8 C5           0.9240    -6.6500     6.0840 cx         1 PQK       0.006000
      9 C4           3.2880    -5.9030     5.9120 cc         1 PQK      -0.092600
     10 C3           3.9650    -4.9070     5.2350 cd         1 PQK      -0.174600
     11 C8           3.7670    -6.9110     6.9000 c3         1 PQK      -0.018800
     12 C9           5.4350    -4.5930     5.2310 c          1 PQK       0.942200
     13 O1           5.8010    -3.6940     4.4420 o          1 PQK      -0.841800
     14 H1          -0.0010    -5.0700     3.4930 hc         1 PQK       0.021700
     15 H2          -0.3010    -4.2190     4.9970 hc         1 PQK       0.021700
     16 H3           0.5210    -3.4030     3.6740 hc         1 PQK       0.021700
     17 H5           3.1680    -3.3380     3.8480 ha         1 PQK       0.149000
     18 H6           0.6820    -8.7450     6.7660 hc         1 PQK       0.071950
     19 H7           1.8500    -8.5400     5.3850 hc         1 PQK       0.071950
     20 H8          -1.0460    -7.4230     5.4310 hc         1 PQK       0.071950
     21 H9           0.1700    -7.2620     4.0870 hc         1 PQK       0.071950
     22 H10          0.4830    -6.2880     7.0090 h1         1 PQK       0.070700
     23 H11          3.1350    -6.9340     7.7900 hc         1 PQK       0.038033
     24 H12          3.7810    -7.9250     6.4960 hc         1 PQK       0.038033
     25 H13          4.7780    -6.6580     7.1990 hc         1 PQK       0.038033
@<TRIPOS>BOND
     1     1     4 1   
     2     1    14 1   
     3     1    15 1   
     4     1    16 1   
     5     2    12 1   
     6     3     4 1   
     7     3     8 1   
     8     3     9 1   
     9     4     5 2   
    10     5    10 1   
    11     5    17 1   
    12     6     7 1   
    13     6     8 1   
    14     6    18 1   
    15     6    19 1   
    16     7     8 1   
    17     7    20 1   
    18     7    21 1   
    19     8    22 1   
    20     9    10 2   
    21     9    11 1   
    22    10    12 1   
    23    11    23 1   
    24    11    24 1   
    25    11    25 1   
    26    12    13 1   
@<TRIPOS>SUBSTRUCTURE
     1 PQK         1 TEMP              0 ****  ****    0 ROOT
