@<TRIPOS>MOLECULE
PQL
   66    68     1     0     0
SMALL
No Charge or Current Charge


@<TRIPOS>ATOM
      1 N1         -18.5660    18.6700   -28.2560 ns         1 PQL      -0.496900
      2 N3         -17.9520    20.5300   -31.0730 n1         1 PQL      -0.441000
      3 C4         -16.8830    20.1700   -26.1820 c5         1 PQL      -0.160700
      4 C5         -17.8650    21.0870   -25.3990 c5         1 PQL      -0.092400
      5 C6         -17.3090    20.9580   -23.9550 c5         1 PQL       0.102000
      6 C7         -15.5490    20.4380   -25.4750 c          1 PQL       0.561000
      7 C8         -19.6140    18.2860   -27.4470 c          1 PQL       0.606100
      8 C10        -21.1460    15.0920   -26.2180 c5         1 PQL       0.134000
      9 C13        -19.5940    16.5380   -24.8070 c          1 PQL       0.602100
     10 C15        -21.3720    17.3470   -23.0380 c3         1 PQL      -0.049000
     11 C17        -22.5250    17.4770   -24.0710 c3         1 PQL      -0.091767
     12 C20        -18.1680    14.9340   -20.4890 c3         1 PQL       0.210000
     13 C21        -21.9830    12.5000   -28.8150 c5         1 PQL       0.061600
     14 C22        -20.5730    12.7370   -29.4030 c5         1 PQL       0.061600
     15 C1         -18.1570    20.0680   -28.4800 c3         1 PQL       0.170800
     16 C11        -21.0350    14.8010   -27.7420 c5         1 PQL       0.208000
     17 C12        -20.6990    16.1830   -28.3500 c5         1 PQL      -0.064400
     18 C14        -20.3450    16.2270   -23.4680 c3         1 PQL       0.046700
     19 C18        -20.6680    18.7280   -22.9110 c3         1 PQL      -0.091767
     20 C2         -18.0450    20.3420   -29.9260 c1         1 PQL       0.282900
     21 C3         -16.8400    20.3900   -27.7230 c3         1 PQL      -0.068400
     22 C9         -19.6530    16.7310   -27.3320 c5         1 PQL       0.028700
     23 F1         -18.1080    16.0820   -19.7730 f          1 PQL      -0.100333
     24 F2         -16.9840    14.7970   -21.1330 f          1 PQL      -0.100333
     25 F3         -18.2630    13.9130   -19.6020 f          1 PQL      -0.100333
     26 N2         -15.8740    20.9020   -24.2290 ns         1 PQL      -0.513900
     27 N4         -20.2080    16.2320   -26.0410 n          1 PQL      -0.395800
     28 N5         -19.3260    15.9820   -22.4150 ns         1 PQL      -0.475900
     29 O1         -14.4200    20.4910   -25.9340 o          1 PQL      -0.558000
     30 O2         -20.3730    19.0830   -26.9130 o          1 PQL      -0.595100
     31 O3         -18.4960    17.0850   -24.7990 o          1 PQL      -0.623100
     32 O4         -20.2620    14.1270   -21.4800 o          1 PQL      -0.550100
     33 S1         -19.6320    13.6160   -28.0670 ss         1 PQL      -0.400000
     34 S2         -22.6580    14.1860   -28.4150 ss         1 PQL      -0.400000
     35 H1         -18.0010    17.9350   -28.6660 hn         1 PQL       0.329500
     36 H3         -17.1420    19.1290   -25.9620 hc         1 PQL       0.100700
     37 H4         -17.8050    22.1250   -25.7470 hc         1 PQL       0.063200
     38 H5         -18.9120    20.7750   -25.4710 hc         1 PQL       0.063200
     39 H6         -17.5920    21.8130   -23.3260 h1         1 PQL       0.046700
     40 H7         -17.6590    20.0370   -23.4700 h1         1 PQL       0.046700
     41 H8         -22.1690    15.3850   -25.9520 h1         1 PQL       0.081700
     42 H9         -20.8700    14.2140   -25.6190 h1         1 PQL       0.081700
     43 H10        -23.2550    18.2290   -23.7470 hc         1 PQL       0.043700
     44 H11        -22.1570    17.7900   -25.0540 hc         1 PQL       0.043700
     45 H12        -23.0600    16.5260   -24.1840 hc         1 PQL       0.043700
     46 H13        -22.6420    11.9900   -29.5300 h1         1 PQL       0.088200
     47 H14        -21.9350    11.8890   -27.9030 h1         1 PQL       0.088200
     48 H15        -20.0740    11.7920   -29.6580 h1         1 PQL       0.088200
     49 H16        -20.6150    13.3580   -30.3070 h1         1 PQL       0.088200
     50 H17        -18.9400    20.7370   -28.0990 h1         1 PQL       0.107700
     51 H18        -20.3090    16.1180   -29.3720 hc         1 PQL       0.081700
     52 H19        -21.5920    16.8180   -28.3810 hc         1 PQL       0.081700
     53 H20        -20.9020    15.2950   -23.6190 h1         1 PQL       0.090700
     54 H21        -21.2740    17.0010   -20.8580 hc         1 PQL       0.043700
     55 H22        -22.7900    17.7250   -21.3970 hc         1 PQL       0.043700
     56 H23        -22.4850    16.0050   -21.6950 hc         1 PQL       0.043700
     57 H24        -19.8440    18.6920   -22.1880 hc         1 PQL       0.043700
     58 H25        -20.2600    19.0610   -23.8730 hc         1 PQL       0.043700
     59 H26        -21.3730    19.4960   -22.5710 hc         1 PQL       0.043700
     60 H28        -16.0380    19.7730   -28.1490 hc         1 PQL       0.070700
     61 H29        -16.5600    21.4310   -27.9300 hc         1 PQL       0.070700
     62 H30        -18.6500    16.3190   -27.5050 h1         1 PQL       0.084700
     63 H31        -15.1350    21.2300   -23.6190 hn         1 PQL       0.329500
     64 H32        -18.5190    16.5980   -22.3890 hn         1 PQL       0.356500
     65 C16        -22.0160    16.9970   -21.6660 c3         1 PQL      -0.091767
     66 C19        -19.3570    14.9540   -21.4900 c          1 PQL       0.554100
@<TRIPOS>BOND
     1     1     7 1   
     2     1    15 1   
     3     1    35 1   
     4     2    20 3   
     5     3     4 1   
     6     3     6 1   
     7     3    21 1   
     8     3    36 1   
     9     4     5 1   
    10     4    37 1   
    11     4    38 1   
    12     5    26 1   
    13     5    39 1   
    14     5    40 1   
    15     6    26 1   
    16     6    29 2   
    17     7    22 1   
    18     7    30 2   
    19     8    16 1   
    20     8    27 1   
    21     8    41 1   
    22     8    42 1   
    23     9    18 1   
    24     9    27 1   
    25     9    31 2   
    26    10    11 1   
    27    10    18 1   
    28    10    19 1   
    29    10    65 1   
    30    11    43 1   
    31    11    44 1   
    32    11    45 1   
    33    12    23 1   
    34    12    24 1   
    35    12    25 1   
    36    12    66 1   
    37    13    14 1   
    38    13    34 1   
    39    13    46 1   
    40    13    47 1   
    41    14    33 1   
    42    14    48 1   
    43    14    49 1   
    44    15    20 1   
    45    15    21 1   
    46    15    50 1   
    47    16    17 1   
    48    16    33 1   
    49    16    34 1   
    50    17    22 1   
    51    17    51 1   
    52    17    52 1   
    53    18    28 1   
    54    18    53 1   
    55    19    57 1   
    56    19    58 1   
    57    19    59 1   
    58    21    60 1   
    59    21    61 1   
    60    22    27 1   
    61    22    62 1   
    62    26    63 1   
    63    28    64 1   
    64    28    66 1   
    65    32    66 2   
    66    54    65 1   
    67    55    65 1   
    68    56    65 1   
@<TRIPOS>SUBSTRUCTURE
     1 PQL         1 TEMP              0 ****  ****    0 ROOT
