@<TRIPOS>MOLECULE
PQL
   66    68     1     0     0
SMALL
abcg2


@<TRIPOS>ATOM
      1 N1         -18.3000    18.4390   -28.1100 ns         1 PQL      -0.496900
      2 N3         -17.5130    20.1980   -30.9140 n1         1 PQL      -0.441000
      3 C4         -17.1590    20.3180   -26.0290 c5         1 PQL      -0.160700
      4 C5         -18.2670    21.2670   -25.5480 c5         1 PQL      -0.092400
      5 C6         -17.8370    21.6630   -24.1270 c5         1 PQL       0.102000
      6 C7         -15.9500    20.7110   -25.1800 c          1 PQL       0.561000
      7 C8         -19.4550    18.0350   -27.5380 c          1 PQL       0.606100
      8 C10        -21.4370    15.4320   -26.2380 c5         1 PQL       0.134000
      9 C13        -19.6050    16.5720   -24.9050 c          1 PQL       0.602100
     10 C15        -21.0820    17.5120   -23.0140 c3         1 PQL      -0.049000
     11 C17        -22.1810    17.9000   -24.0120 c3         1 PQL      -0.091767
     12 C20        -18.0990    14.3670   -21.0980 c3         1 PQL       0.210000
     13 C21        -22.2260    12.4960   -28.8160 c5         1 PQL       0.061600
     14 C22        -20.7100    12.4570   -28.8610 c5         1 PQL       0.061600
     15 C1         -18.0140    19.8360   -28.3680 c3         1 PQL       0.170800
     16 C11        -21.1880    14.7600   -27.5910 c5         1 PQL       0.208000
     17 C12        -20.4840    15.8790   -28.3730 c5         1 PQL      -0.064400
     18 C14        -20.2960    16.2800   -23.5730 c3         1 PQL       0.046700
     19 C18        -20.1610    18.7130   -22.7770 c3         1 PQL      -0.091767
     20 C2         -17.7420    20.0370   -29.7990 c1         1 PQL       0.282900
     21 C3         -16.8460    20.3660   -27.5180 c3         1 PQL      -0.068400
     22 C9         -19.5650    16.5280   -27.3260 c5         1 PQL       0.028700
     23 F1         -18.3770    14.5070   -19.7900 f          1 PQL      -0.100333
     24 F2         -17.0320    15.1410   -21.3720 f          1 PQL      -0.100333
     25 F3         -17.7410    13.0920   -21.3050 f          1 PQL      -0.100333
     26 N2         -16.3910    21.4830   -24.1710 ns         1 PQL      -0.513900
     27 N4         -20.2200    16.2230   -26.0490 n          1 PQL      -0.395800
     28 N5         -19.2500    15.8280   -22.6670 ns         1 PQL      -0.475900
     29 O1         -14.7870    20.3670   -25.3740 o          1 PQL      -0.558000
     30 O2         -20.3720    18.7930   -27.2520 o          1 PQL      -0.595100
     31 O3         -18.5060    17.1310   -24.9170 o          1 PQL      -0.623100
     32 O4         -20.3130    13.9660   -21.8660 o          1 PQL      -0.550100
     33 S1         -20.1080    13.2930   -27.3650 ss         1 PQL      -0.400000
     34 S2         -22.7440    14.2010   -28.3970 ss         1 PQL      -0.400000
     35 H1         -17.5540    17.7700   -28.2360 hn         1 PQL       0.329500
     36 H3         -17.3990    19.2880   -25.7430 hc         1 PQL       0.100700
     37 H4         -18.2910    22.1540   -26.1860 hc         1 PQL       0.063200
     38 H5         -19.2540    20.8120   -25.5640 hc         1 PQL       0.063200
     39 H6         -18.0930    22.6940   -23.8830 h1         1 PQL       0.046700
     40 H7         -18.2830    21.0090   -23.3730 h1         1 PQL       0.046700
     41 H8         -22.3110    16.0810   -26.3060 h1         1 PQL       0.081700
     42 H9         -21.5890    14.7120   -25.4400 h1         1 PQL       0.081700
     43 H10        -22.7610    18.7290   -23.6030 hc         1 PQL       0.043700
     44 H11        -21.7650    18.2210   -24.9680 hc         1 PQL       0.043700
     45 H12        -22.8650    17.0680   -24.1890 hc         1 PQL       0.043700
     46 H13        -22.6600    12.2550   -29.7870 h1         1 PQL       0.088200
     47 H14        -22.6130    11.8090   -28.0660 h1         1 PQL       0.088200
     48 H15        -20.3340    11.4340   -28.8380 h1         1 PQL       0.088200
     49 H16        -20.3230    12.9610   -29.7470 h1         1 PQL       0.088200
     50 H17        -18.9260    20.3890   -28.1360 h1         1 PQL       0.107700
     51 H18        -19.9370    15.5120   -29.2370 hc         1 PQL       0.081700
     52 H19        -21.2340    16.5970   -28.7080 hc         1 PQL       0.081700
     53 H20        -21.0010    15.4600   -23.6680 h1         1 PQL       0.090700
     54 H21        -20.9860    16.8410   -20.9370 hc         1 PQL       0.043700
     55 H22        -22.3260    17.9290   -21.3000 hc         1 PQL       0.043700
     56 H23        -22.3950    16.2410   -21.8260 hc         1 PQL       0.043700
     57 H24        -19.3510    18.4710   -22.0860 hc         1 PQL       0.043700
     58 H25        -19.7200    19.0690   -23.7070 hc         1 PQL       0.043700
     59 H26        -20.7400    19.5290   -22.3400 hc         1 PQL       0.043700
     60 H28        -15.9560    19.7720   -27.7310 hc         1 PQL       0.070700
     61 H29        -16.6400    21.3940   -27.8230 hc         1 PQL       0.070700
     62 H30        -18.5740    16.0730   -27.3370 h1         1 PQL       0.084700
     63 H31        -15.7800    21.7640   -23.4180 hn         1 PQL       0.329500
     64 H32        -18.3730    16.3270   -22.6990 hn         1 PQL       0.356500
     65 C16        -21.7340    17.0980   -21.6880 c3         1 PQL      -0.091767
     66 C19        -19.3510    14.7140   -21.9440 c          1 PQL       0.554100
@<TRIPOS>BOND
     1     1     7 1   
     2     1    15 1   
     3     1    35 1   
     4     2    20 3   
     5     3     4 1   
     6     3     6 1   
     7     3    21 1   
     8     3    36 1   
     9     4     5 1   
    10     4    37 1   
    11     4    38 1   
    12     5    26 1   
    13     5    39 1   
    14     5    40 1   
    15     6    26 1   
    16     6    29 2   
    17     7    22 1   
    18     7    30 2   
    19     8    16 1   
    20     8    27 1   
    21     8    41 1   
    22     8    42 1   
    23     9    18 1   
    24     9    27 1   
    25     9    31 2   
    26    10    11 1   
    27    10    18 1   
    28    10    19 1   
    29    10    65 1   
    30    11    43 1   
    31    11    44 1   
    32    11    45 1   
    33    12    23 1   
    34    12    24 1   
    35    12    25 1   
    36    12    66 1   
    37    13    14 1   
    38    13    34 1   
    39    13    46 1   
    40    13    47 1   
    41    14    33 1   
    42    14    48 1   
    43    14    49 1   
    44    15    20 1   
    45    15    21 1   
    46    15    50 1   
    47    16    17 1   
    48    16    33 1   
    49    16    34 1   
    50    17    22 1   
    51    17    51 1   
    52    17    52 1   
    53    18    28 1   
    54    18    53 1   
    55    19    57 1   
    56    19    58 1   
    57    19    59 1   
    58    21    60 1   
    59    21    61 1   
    60    22    27 1   
    61    22    62 1   
    62    26    63 1   
    63    28    64 1   
    64    28    66 1   
    65    32    66 2   
    66    54    65 1   
    67    55    65 1   
    68    56    65 1   
@<TRIPOS>SUBSTRUCTURE
     1 PQL         1 TEMP              0 ****  ****    0 ROOT
