@<TRIPOS>MOLECULE
PQM
   23    24     1     0     0
SMALL
bcc


@<TRIPOS>ATOM
      1 C01         -4.0850    -1.0640     0.3570 ca         1 PQM      -0.252300
      2 C02         -2.7020    -1.1210     0.3990 ca         1 PQM      -0.100000
      3 C03         -1.9570    -0.0280    -0.0380 cp         1 PQM      -0.100300
      4 C04         -2.6730     1.0750    -0.5070 ca         1 PQM       0.393200
      5 C06         -4.6870     0.0900    -0.1200 ca         1 PQM       0.372200
      6 C07         -0.4840    -0.0280    -0.0160 cp         1 PQM      -0.091000
      7 C08          0.2360    -1.1890    -0.3000 ca         1 PQM      -0.140500
      8 C09          1.6220    -1.1880    -0.2770 ca         1 PQM      -0.110500
      9 C10          2.3350    -0.0300     0.0230 ca         1 PQM      -0.116600
     10 C11          1.6160     1.1280     0.3060 ca         1 PQM      -0.110500
     11 C12          0.2300     1.1320     0.2900 ca         1 PQM      -0.140500
     12 C13          3.8590    -0.0320     0.0420 c          1 PQM       0.922200
     13 N05         -3.9960     1.1410    -0.5470 nb         1 PQM      -0.678000
     14 O14          4.4170    -1.1260    -0.1630 o          1 PQM      -0.822300
     15 O15          4.4140     1.0620     0.2610 o          1 PQM      -0.822300
     16 H1          -4.6870    -1.8950     0.6970 ha         1 PQM       0.127000
     17 H2          -2.2080    -2.0030     0.7870 ha         1 PQM       0.139000
     18 H3          -2.1400     1.9420    -0.8830 h4         1 PQM       0.022100
     19 H4          -5.7680     0.1710    -0.1590 h4         1 PQM       0.002100
     20 H5          -0.2890    -2.1000    -0.5610 ha         1 PQM       0.106000
     21 H6           2.1590    -2.0980    -0.5070 ha         1 PQM       0.147500
     22 H7           2.1480     2.0370     0.5530 ha         1 PQM       0.147500
     23 H8          -0.3000     2.0430     0.5400 ha         1 PQM       0.106000
@<TRIPOS>BOND
     1     1     2 ar  
     2     1     5 ar  
     3     1    16 1   
     4     2     3 ar  
     5     2    17 1   
     6     3     4 ar  
     7     3     6 1   
     8     4    13 ar  
     9     4    18 1   
    10     5    13 ar  
    11     5    19 1   
    12     6     7 ar  
    13     6    11 ar  
    14     7     8 ar  
    15     7    20 1   
    16     8     9 ar  
    17     8    21 1   
    18     9    10 ar  
    19     9    12 1   
    20    10    11 ar  
    21    10    22 1   
    22    11    23 1   
    23    12    14 1   
    24    12    15 1   
@<TRIPOS>SUBSTRUCTURE
     1 PQM         1 TEMP              0 ****  ****    0 ROOT
