@<TRIPOS>MOLECULE
PQM
   23    24     1     0     0
SMALL
No Charge or Current Charge


@<TRIPOS>ATOM
      1 C01         -4.1360    -1.0930     0.3180 ca         1 PQM      -0.169000
      2 C02         -2.7330    -1.1540     0.3570 ca         1 PQM      -0.082000
      3 C03         -1.9790    -0.0190    -0.0350 cp         1 PQM      -0.035000
      4 C04         -2.7160     1.1260    -0.4470 ca         1 PQM       0.327900
      5 C06         -4.7610     0.0900    -0.1080 ca         1 PQM       0.306900
      6 C07         -0.4790    -0.0250    -0.0140 cp         1 PQM      -0.091000
      7 C08          0.2560    -1.2120    -0.2540 ca         1 PQM      -0.122500
      8 C09          1.6610    -1.2170    -0.2370 ca         1 PQM      -0.092500
      9 C10          2.3870    -0.0320     0.0230 ca         1 PQM      -0.116600
     10 C11          1.6610     1.1560     0.2640 ca         1 PQM      -0.092500
     11 C12          0.2550     1.1580     0.2440 ca         1 PQM      -0.122500
     12 C13          3.9090    -0.0360     0.0430 c          1 PQM       0.711600
     13 N05         -4.0710     1.1880    -0.4870 nb         1 PQM      -0.678000
     14 O14          4.4950    -1.0890    -0.1680 o          1 PQM      -0.717000
     15 O15          4.4950     1.0130     0.2700 o          1 PQM      -0.717000
     16 H1          -4.7360    -1.9480     0.6160 ha         1 PQM       0.109000
     17 H2          -2.2400    -2.0610     0.6980 ha         1 PQM       0.121000
     18 H3          -2.1980     2.0270    -0.7720 h4         1 PQM       0.022100
     19 H4          -5.8470     0.1620    -0.1460 h4         1 PQM       0.002100
     20 H5          -0.2650    -2.1400    -0.4720 ha         1 PQM       0.088000
     21 H6           2.1860    -2.1510    -0.4300 ha         1 PQM       0.129500
     22 H7           2.1850     2.0870     0.4700 ha         1 PQM       0.129500
     23 H8          -0.2660     2.0900     0.4460 ha         1 PQM       0.088000
@<TRIPOS>BOND
     1     1     2 ar  
     2     1     5 ar  
     3     1    16 1   
     4     2     3 ar  
     5     2    17 1   
     6     3     4 ar  
     7     3     6 1   
     8     4    13 ar  
     9     4    18 1   
    10     5    13 ar  
    11     5    19 1   
    12     6     7 ar  
    13     6    11 ar  
    14     7     8 ar  
    15     7    20 1   
    16     8     9 ar  
    17     8    21 1   
    18     9    10 ar  
    19     9    12 1   
    20    10    11 ar  
    21    10    22 1   
    22    11    23 1   
    23    12    14 1   
    24    12    15 1   
@<TRIPOS>SUBSTRUCTURE
     1 PQM         1 TEMP              0 ****  ****    0 ROOT
