@<TRIPOS>MOLECULE
PQN
   79    80     1     0     0
SMALL
abcg2


@<TRIPOS>ATOM
      1 C1           0.7900    -1.1750    -7.1350 c          1 PQN       0.575900
      2 O1           1.1550    -2.1190    -7.8050 o          1 PQN      -0.507100
      3 C2          -0.6430    -1.0110    -6.7690 cc         1 PQN      -0.133400
      4 C2M         -1.5860    -2.0830    -7.2240 c3         1 PQN      -0.059900
      5 C3          -1.0560     0.0590    -6.0610 cd         1 PQN      -0.133400
      6 C4          -0.1020     1.1130    -5.6300 c          1 PQN       0.577900
      7 O4          -0.4940     2.1030    -5.0470 o          1 PQN      -0.508100
      8 C5           1.3370     0.9380    -5.9320 ca         1 PQN      -0.134600
      9 C6           2.2580     1.8830    -5.4930 ca         1 PQN      -0.066000
     10 C7           3.6040     1.7200    -5.7790 ca         1 PQN      -0.099000
     11 C8           4.0350     0.6170    -6.5060 ca         1 PQN      -0.099000
     12 C9           3.1190    -0.3260    -6.9480 ca         1 PQN      -0.066000
     13 C10          1.7680    -0.1680    -6.6610 ca         1 PQN      -0.134600
     14 C11         -2.4810     0.2310    -5.6130 c3         1 PQN       0.001000
     15 C12         -2.6410    -0.3300    -4.2260 c2         1 PQN      -0.237200
     16 C13         -3.0270     0.3390    -3.1380 c2         1 PQN      -0.089400
     17 C14         -3.3980     1.8000    -3.1530 c3         1 PQN      -0.062900
     18 C15         -3.0730    -0.3460    -1.8000 c3         1 PQN      -0.041200
     19 C16         -1.9160     0.0890    -0.8970 c3         1 PQN      -0.073400
     20 C17         -1.9830    -0.5360     0.4920 c3         1 PQN      -0.073400
     21 C18         -0.8420    -0.1270     1.4280 c3         1 PQN      -0.056700
     22 C19          0.5070    -0.6290     0.9190 c3         1 PQN      -0.087100
     23 C20         -1.1260    -0.6060     2.8540 c3         1 PQN      -0.072400
     24 C21         -0.1380    -0.1050     3.9020 c3         1 PQN      -0.073400
     25 C22         -0.4970    -0.5540     5.3140 c3         1 PQN      -0.072400
     26 C23          0.3890     0.0240     6.4220 c3         1 PQN      -0.056700
     27 C24          1.8560    -0.3440     6.2170 c3         1 PQN      -0.087100
     28 C25         -0.1220    -0.4370     7.7890 c3         1 PQN      -0.073400
     29 C26          0.5340     0.2380     8.9880 c3         1 PQN      -0.073400
     30 C27         -0.0720    -0.2160    10.3110 c3         1 PQN      -0.072400
     31 C28          0.4860     0.4850    11.5510 c3         1 PQN      -0.059700
     32 C29         -0.3240     0.1010    12.7870 c3         1 PQN      -0.086600
     33 C30          1.9650     0.1830    11.7740 c3         1 PQN      -0.086600
     34 H2M1        -1.0770    -2.8490    -7.8010 hc         1 PQN       0.055700
     35 H2M2        -2.0670    -2.5710    -6.3750 hc         1 PQN       0.055700
     36 H2M3        -2.3790    -1.6670    -7.8470 hc         1 PQN       0.055700
     37 H6           1.9250     2.7440    -4.9300 ha         1 PQN       0.138000
     38 H7           4.3200     2.4550    -5.4360 ha         1 PQN       0.121000
     39 H8           5.0860     0.4920    -6.7290 ha         1 PQN       0.121000
     40 H9           3.4570    -1.1830    -7.5140 ha         1 PQN       0.138000
     41 H111        -3.1480    -0.2890    -6.3030 hc         1 PQN       0.063200
     42 H112        -2.7590     1.2830    -5.6450 hc         1 PQN       0.063200
     43 H12         -2.3970    -1.3840    -4.1220 ha         1 PQN       0.168000
     44 H141        -3.6970     2.1410    -2.1630 hc         1 PQN       0.045033
     45 H142        -2.5670     2.4230    -3.4800 hc         1 PQN       0.045033
     46 H143        -4.2320     1.9970    -3.8280 hc         1 PQN       0.045033
     47 H151        -3.0360    -1.4310    -1.9290 hc         1 PQN       0.043700
     48 H152        -4.0230    -0.1180    -1.3040 hc         1 PQN       0.043700
     49 H161        -1.9090     1.1790    -0.7970 hc         1 PQN       0.043200
     50 H162        -0.9800    -0.1790    -1.3940 hc         1 PQN       0.043200
     51 H171        -2.0020    -1.6290     0.4020 hc         1 PQN       0.036700
     52 H172        -2.9370    -0.2540     0.9520 hc         1 PQN       0.036700
     53 H18         -0.8100     0.9710     1.4500 hc         1 PQN       0.044700
     54 H191         0.5260    -1.7220     0.8840 hc         1 PQN       0.032033
     55 H192         0.7260    -0.2620    -0.0830 hc         1 PQN       0.032033
     56 H193         1.3290    -0.3070     1.5590 hc         1 PQN       0.032033
     57 H201        -1.1490    -1.7030     2.8690 hc         1 PQN       0.036700
     58 H202        -2.1330    -0.2800     3.1390 hc         1 PQN       0.036700
     59 H211        -0.0990     0.9900     3.8650 hc         1 PQN       0.039200
     60 H212         0.8680    -0.4530     3.6540 hc         1 PQN       0.039200
     61 H221        -0.4600    -1.6490     5.3670 hc         1 PQN       0.036200
     62 H222        -1.5370    -0.2770     5.5200 hc         1 PQN       0.036200
     63 H23          0.3020     1.1190     6.3830 hc         1 PQN       0.043700
     64 H241         1.9810    -1.4310     6.2070 hc         1 PQN       0.031700
     65 H242         2.2460     0.0410     5.2750 hc         1 PQN       0.031700
     66 H243         2.4900     0.0530     7.0100 hc         1 PQN       0.031700
     67 H251         0.0070    -1.5240     7.8690 hc         1 PQN       0.036200
     68 H252        -1.2020    -0.2610     7.8390 hc         1 PQN       0.036200
     69 H261         0.4260     1.3250     8.8950 hc         1 PQN       0.038700
     70 H262         1.6090     0.0400     8.9860 hc         1 PQN       0.038700
     71 H271         0.0620    -1.2990    10.4190 hc         1 PQN       0.036700
     72 H272        -1.1550    -0.0500    10.2730 hc         1 PQN       0.036700
     73 H28          0.3770     1.5660    11.3990 hc         1 PQN       0.043700
     74 H291         0.0440     0.6110    13.6790 hc         1 PQN       0.031533
     75 H292        -1.3780     0.3560    12.6680 hc         1 PQN       0.031533
     76 H293        -0.2630    -0.9740    12.9740 hc         1 PQN       0.031533
     77 H301         2.1230    -0.8880    11.9200 hc         1 PQN       0.031533
     78 H302         2.5850     0.4990    10.9340 hc         1 PQN       0.031533
     79 H303         2.3380     0.6950    12.6630 hc         1 PQN       0.031533
@<TRIPOS>BOND
     1     1     2 2   
     2     1     3 1   
     3     1    13 1   
     4     3     4 1   
     5     3     5 2   
     6     4    34 1   
     7     4    35 1   
     8     4    36 1   
     9     5     6 1   
    10     5    14 1   
    11     6     7 2   
    12     6     8 1   
    13     8     9 ar  
    14     8    13 ar  
    15     9    10 ar  
    16     9    37 1   
    17    10    11 ar  
    18    10    38 1   
    19    11    12 ar  
    20    11    39 1   
    21    12    13 ar  
    22    12    40 1   
    23    14    15 1   
    24    14    41 1   
    25    14    42 1   
    26    15    16 2   
    27    15    43 1   
    28    16    17 1   
    29    16    18 1   
    30    17    44 1   
    31    17    45 1   
    32    17    46 1   
    33    18    19 1   
    34    18    47 1   
    35    18    48 1   
    36    19    20 1   
    37    19    49 1   
    38    19    50 1   
    39    20    21 1   
    40    20    51 1   
    41    20    52 1   
    42    21    22 1   
    43    21    23 1   
    44    21    53 1   
    45    22    54 1   
    46    22    55 1   
    47    22    56 1   
    48    23    24 1   
    49    23    57 1   
    50    23    58 1   
    51    24    25 1   
    52    24    59 1   
    53    24    60 1   
    54    25    26 1   
    55    25    61 1   
    56    25    62 1   
    57    26    27 1   
    58    26    28 1   
    59    26    63 1   
    60    27    64 1   
    61    27    65 1   
    62    27    66 1   
    63    28    29 1   
    64    28    67 1   
    65    28    68 1   
    66    29    30 1   
    67    29    69 1   
    68    29    70 1   
    69    30    31 1   
    70    30    71 1   
    71    30    72 1   
    72    31    32 1   
    73    31    33 1   
    74    31    73 1   
    75    32    74 1   
    76    32    75 1   
    77    32    76 1   
    78    33    77 1   
    79    33    78 1   
    80    33    79 1   
@<TRIPOS>SUBSTRUCTURE
     1 PQN         1 TEMP              0 ****  ****    0 ROOT
