@<TRIPOS>MOLECULE
PQN
   79    80     1     0     0
SMALL
No Charge or Current Charge


@<TRIPOS>ATOM
      1 C1           0.8190    -1.3270    -7.1230 c          1 PQN       0.575900
      2 O1           1.2690    -2.3510    -7.6270 o          1 PQN      -0.507100
      3 C2          -0.5980    -1.2150    -6.6520 cc         1 PQN      -0.133400
      4 C2M         -1.4130    -2.4900    -6.8230 c3         1 PQN      -0.059900
      5 C3          -1.1070    -0.0240    -6.1320 cd         1 PQN      -0.133400
      6 C4          -0.2460     1.1920    -5.9740 c          1 PQN       0.577900
      7 O4          -0.6740     2.2470    -5.5170 o          1 PQN      -0.508100
      8 C5           1.1950     1.0890    -6.4030 ca         1 PQN      -0.134600
      9 C6           2.0540     2.2040    -6.2600 ca         1 PQN      -0.066000
     10 C7           3.3980     2.1290    -6.6580 ca         1 PQN      -0.099000
     11 C8           3.9000     0.9410    -7.2040 ca         1 PQN      -0.099000
     12 C9           3.0580    -0.1720    -7.3520 ca         1 PQN      -0.066000
     13 C10          1.7010    -0.1120    -6.9540 ca         1 PQN      -0.134600
     14 C11         -2.5490     0.1410    -5.6730 c3         1 PQN       0.001000
     15 C12         -2.6990    -0.2500    -4.2110 c2         1 PQN      -0.237200
     16 C13         -2.9850     0.5310    -3.1490 c2         1 PQN      -0.089400
     17 C14         -3.2390     2.0340    -3.1840 c3         1 PQN      -0.062900
     18 C15         -3.0930    -0.0490    -1.7460 c3         1 PQN      -0.041200
     19 C16         -1.8310     0.2050    -0.8900 c3         1 PQN      -0.073400
     20 C17         -1.9050    -0.4590     0.5070 c3         1 PQN      -0.073400
     21 C18         -0.7200    -0.1260     1.4600 c3         1 PQN      -0.056700
     22 C19          0.6400    -0.6240     0.9020 c3         1 PQN      -0.087100
     23 C20         -1.0100    -0.6760     2.8870 c3         1 PQN      -0.072400
     24 C21         -0.0040    -0.2380     3.9790 c3         1 PQN      -0.073400
     25 C22         -0.4160    -0.7060     5.3970 c3         1 PQN      -0.072400
     26 C23          0.4840    -0.1860     6.5550 c3         1 PQN      -0.056700
     27 C24          1.9470    -0.6880     6.4330 c3         1 PQN      -0.087100
     28 C25         -0.1510    -0.5460     7.9300 c3         1 PQN      -0.073400
     29 C26          0.5400     0.0900     9.1620 c3         1 PQN      -0.073400
     30 C27         -0.2130    -0.1960    10.4840 c3         1 PQN      -0.072400
     31 C28          0.3800     0.5060    11.7370 c3         1 PQN      -0.059700
     32 C29         -0.5360     0.3040    12.9660 c3         1 PQN      -0.086600
     33 C30          1.8270     0.0580    12.0550 c3         1 PQN      -0.086600
     34 H2M1        -0.8160    -3.3890    -6.6280 hc         1 PQN       0.055700
     35 H2M2        -2.2610    -2.5400    -6.1320 hc         1 PQN       0.055700
     36 H2M3        -1.8080    -2.5640    -7.8430 hc         1 PQN       0.055700
     37 H6           1.6840     3.1360    -5.8390 ha         1 PQN       0.138000
     38 H7           4.0490     2.9930    -6.5420 ha         1 PQN       0.121000
     39 H8           4.9410     0.8810    -7.5140 ha         1 PQN       0.121000
     40 H9           3.4690    -1.0860    -7.7780 ha         1 PQN       0.138000
     41 H111        -3.2160    -0.4780    -6.2840 hc         1 PQN       0.063200
     42 H112        -2.9070     1.1570    -5.8690 hc         1 PQN       0.063200
     43 H12         -2.5390    -1.3160    -4.0480 ha         1 PQN       0.168000
     44 H141        -4.2250     2.2730    -2.7700 hc         1 PQN       0.045033
     45 H142        -2.4920     2.5750    -2.5910 hc         1 PQN       0.045033
     46 H143        -3.2070     2.4580    -4.1900 hc         1 PQN       0.045033
     47 H151        -3.2510    -1.1330    -1.8030 hc         1 PQN       0.043700
     48 H152        -3.9760     0.3530    -1.2310 hc         1 PQN       0.043700
     49 H161        -1.6850     1.2850    -0.7660 hc         1 PQN       0.043200
     50 H162        -0.9630    -0.1770    -1.4390 hc         1 PQN       0.043200
     51 H171        -1.9750    -1.5470     0.3840 hc         1 PQN       0.036700
     52 H172        -2.8390    -0.1390     0.9840 hc         1 PQN       0.036700
     53 H18         -0.6630     0.9670     1.5380 hc         1 PQN       0.044700
     54 H191         0.6440    -1.7170     0.8030 hc         1 PQN       0.032033
     55 H192         0.8510    -0.1890    -0.0810 hc         1 PQN       0.032033
     56 H193         1.4690    -0.3350     1.5560 hc         1 PQN       0.032033
     57 H201        -1.0460    -1.7720     2.8520 hc         1 PQN       0.036700
     58 H202        -2.0090    -0.3430     3.1930 hc         1 PQN       0.036700
     59 H211         0.0840     0.8560     3.9710 hc         1 PQN       0.039200
     60 H212         0.9840    -0.6470     3.7410 hc         1 PQN       0.039200
     61 H221        -0.4380    -1.8030     5.4200 hc         1 PQN       0.036200
     62 H222        -1.4460    -0.3710     5.5770 hc         1 PQN       0.036200
     63 H23          0.5050     0.9090     6.4840 hc         1 PQN       0.043700
     64 H241         1.9910    -1.7820     6.4970 hc         1 PQN       0.031700
     65 H242         2.3970    -0.3810     5.4830 hc         1 PQN       0.031700
     66 H243         2.5790    -0.2720     7.2260 hc         1 PQN       0.031700
     67 H251        -0.1620    -1.6370     8.0480 hc         1 PQN       0.036200
     68 H252        -1.2000    -0.2230     7.9250 hc         1 PQN       0.036200
     69 H261         0.6130     1.1740     9.0150 hc         1 PQN       0.038700
     70 H262         1.5610    -0.2990     9.2430 hc         1 PQN       0.038700
     71 H271        -0.2400    -1.2790    10.6550 hc         1 PQN       0.036700
     72 H272        -1.2550     0.1270    10.3640 hc         1 PQN       0.036700
     73 H28          0.4080     1.5840    11.5320 hc         1 PQN       0.043700
     74 H291        -0.1450     0.8470    13.8350 hc         1 PQN       0.031533
     75 H292        -1.5470     0.6770    12.7640 hc         1 PQN       0.031533
     76 H293        -0.6080    -0.7580    13.2300 hc         1 PQN       0.031533
     77 H301         1.8780    -1.0290    12.1950 hc         1 PQN       0.031533
     78 H302         2.5150     0.3360    11.2480 hc         1 PQN       0.031533
     79 H303         2.1870     0.5370    12.9730 hc         1 PQN       0.031533
@<TRIPOS>BOND
     1     1     2 2   
     2     1     3 1   
     3     1    13 1   
     4     3     4 1   
     5     3     5 2   
     6     4    34 1   
     7     4    35 1   
     8     4    36 1   
     9     5     6 1   
    10     5    14 1   
    11     6     7 2   
    12     6     8 1   
    13     8     9 ar  
    14     8    13 ar  
    15     9    10 ar  
    16     9    37 1   
    17    10    11 ar  
    18    10    38 1   
    19    11    12 ar  
    20    11    39 1   
    21    12    13 ar  
    22    12    40 1   
    23    14    15 1   
    24    14    41 1   
    25    14    42 1   
    26    15    16 2   
    27    15    43 1   
    28    16    17 1   
    29    16    18 1   
    30    17    44 1   
    31    17    45 1   
    32    17    46 1   
    33    18    19 1   
    34    18    47 1   
    35    18    48 1   
    36    19    20 1   
    37    19    49 1   
    38    19    50 1   
    39    20    21 1   
    40    20    51 1   
    41    20    52 1   
    42    21    22 1   
    43    21    23 1   
    44    21    53 1   
    45    22    54 1   
    46    22    55 1   
    47    22    56 1   
    48    23    24 1   
    49    23    57 1   
    50    23    58 1   
    51    24    25 1   
    52    24    59 1   
    53    24    60 1   
    54    25    26 1   
    55    25    61 1   
    56    25    62 1   
    57    26    27 1   
    58    26    28 1   
    59    26    63 1   
    60    27    64 1   
    61    27    65 1   
    62    27    66 1   
    63    28    29 1   
    64    28    67 1   
    65    28    68 1   
    66    29    30 1   
    67    29    69 1   
    68    29    70 1   
    69    30    31 1   
    70    30    71 1   
    71    30    72 1   
    72    31    32 1   
    73    31    33 1   
    74    31    73 1   
    75    32    74 1   
    76    32    75 1   
    77    32    76 1   
    78    33    77 1   
    79    33    78 1   
    80    33    79 1   
@<TRIPOS>SUBSTRUCTURE
     1 PQN         1 TEMP              0 ****  ****    0 ROOT
