@<TRIPOS>MOLECULE
PQP
   21    22     1     0     0
SMALL
No Charge or Current Charge


@<TRIPOS>ATOM
      1 C10          4.2770    -1.9610    18.7770 cc         1 PQP       0.201900
      2 C14          3.5260     3.4660    16.9620 ca         1 PQP      -0.077000
      3 C13          3.2820     2.0810    16.9750 ca         1 PQP      -0.144500
      4 C12          4.8050    -0.9410    16.9470 cd         1 PQP       0.392400
      5 C04          4.6540     4.0080    17.6210 ca         1 PQP      -0.126600
      6 C05          5.5300     3.1230    18.2930 ca         1 PQP      -0.077000
      7 C06          5.2840     1.7390    18.3050 ca         1 PQP      -0.144500
      8 C07          4.1580     1.2110    17.6460 ca         1 PQP      -0.051200
      9 C09          3.6690    -0.7360    18.8750 cd         1 PQP      -0.220000
     10 N08          3.9010    -0.1600    17.6440 na         1 PQP      -0.043300
     11 N11          4.9750    -2.0900    17.6010 nc         1 PQP      -0.699000
     12 O01          5.9060     5.9310    18.1900 o          1 PQP      -0.713000
     13 O03          4.1350     6.2330    17.0140 o          1 PQP      -0.713000
     14 H1           4.2990    -2.7550    19.5120 h4         1 PQP       0.022100
     15 H2           2.8310     4.1170    16.4360 ha         1 PQP       0.134000
     16 H3           2.4080     1.6850    16.4630 ha         1 PQP       0.100000
     17 H4           5.2700    -0.6260    16.0190 h5         1 PQP       0.054100
     18 H5           6.4070     3.5070    18.8110 ha         1 PQP       0.134000
     19 H6           5.9720     1.0790    18.8290 ha         1 PQP       0.100000
     20 H7           3.1130    -0.2670    19.6770 h4         1 PQP       0.156000
     21 C02          4.9190     5.5050    17.6070 c          1 PQP       0.714600
@<TRIPOS>BOND
     1     1     9 2   
     2     1    11 1   
     3     1    14 1   
     4     2     3 ar  
     5     2     5 ar  
     6     2    15 1   
     7     3     8 ar  
     8     3    16 1   
     9     4    10 1   
    10     4    11 2   
    11     4    17 1   
    12     5     6 ar  
    13     5    21 1   
    14     6     7 ar  
    15     6    18 1   
    16     7     8 ar  
    17     7    19 1   
    18     8    10 1   
    19     9    10 1   
    20     9    20 1   
    21    12    21 1   
    22    13    21 1   
@<TRIPOS>SUBSTRUCTURE
     1 PQP         1 TEMP              0 ****  ****    0 ROOT
