@<TRIPOS>MOLECULE
PQP
   21    22     1     0     0
SMALL
bcc


@<TRIPOS>ATOM
      1 C10          4.1870    -2.1660    18.5930 cc         1 PQP       0.267200
      2 C14          3.8140     3.3690    16.7490 ca         1 PQP      -0.095000
      3 C13          3.6840     1.9920    16.8330 ca         1 PQP      -0.162500
      4 C12          4.1900    -0.9750    16.8300 cd         1 PQP       0.392400
      5 C04          4.6330     4.0750    17.6260 ca         1 PQP      -0.126600
      6 C05          5.3290     3.3550    18.5940 ca         1 PQP      -0.095000
      7 C06          5.2310     1.9760    18.6760 ca         1 PQP      -0.162500
      8 C07          4.4040     1.2910    17.7940 ca         1 PQP      -0.051200
      9 C09          4.2980    -0.8760    19.0160 cd         1 PQP      -0.252600
     10 N08          4.2950    -0.1140    17.8750 na         1 PQP      -0.094000
     11 N11          4.1240    -2.2160    17.2270 nc         1 PQP      -0.699000
     12 O01          5.4630     6.1420    18.4070 o          1 PQP      -0.818300
     13 O03          4.1660     6.1430    16.5890 o          1 PQP      -0.818300
     14 H1           4.1460    -3.0570    19.2000 h4         1 PQP       0.022100
     15 H2           3.2550     3.9060    15.9940 ha         1 PQP       0.152000
     16 H3           3.0140     1.4710    16.1610 ha         1 PQP       0.118000
     17 H4           4.1900    -0.6360    15.8050 h5         1 PQP       0.054100
     18 H5           5.9710     3.8800    19.2880 ha         1 PQP       0.152000
     19 H6           5.8080     1.4360    19.4160 ha         1 PQP       0.118000
     20 H7           4.3530    -0.4410    20.0000 h4         1 PQP       0.174000
     21 C02          4.7660     5.5940    17.5320 c          1 PQP       0.925200
@<TRIPOS>BOND
     1     1     9 2   
     2     1    11 1   
     3     1    14 1   
     4     2     3 ar  
     5     2     5 ar  
     6     2    15 1   
     7     3     8 ar  
     8     3    16 1   
     9     4    10 1   
    10     4    11 2   
    11     4    17 1   
    12     5     6 ar  
    13     5    21 1   
    14     6     7 ar  
    15     6    18 1   
    16     7     8 ar  
    17     7    19 1   
    18     8    10 1   
    19     9    10 1   
    20     9    20 1   
    21    12    21 1   
    22    13    21 1   
@<TRIPOS>SUBSTRUCTURE
     1 PQP         1 TEMP              0 ****  ****    0 ROOT
