@<TRIPOS>MOLECULE
PQQ
   27    29     1     0     0
SMALL
No Charge or Current Charge


@<TRIPOS>ATOM
      1 N1          17.4040    51.2900    66.6050 na         1 PQQ      -0.033000
      2 C2          16.8790    50.0800    66.1390 cc         1 PQQ      -0.240600
      3 C2X         17.1650    49.3730    64.8680 c          1 PQQ       0.737600
      4 O2A         17.9710    49.8830    64.1060 o          1 PQQ      -0.739500
      5 O2B         16.5950    48.3200    64.6270 o          1 PQQ      -0.739500
      6 C3          15.9960    49.6670    67.1080 cd         1 PQQ      -0.133000
      7 C3A         15.9840    50.6140    68.1600 cd         1 PQQ      -0.327600
      8 C1A         16.8830    51.5980    67.8600 cc         1 PQQ      -0.077000
      9 C4          15.1620    50.6140    69.3900 c          1 PQQ       0.535700
     10 O4          14.3780    49.6970    69.6430 o          1 PQQ      -0.596100
     11 C5          15.3330    51.8640    70.3400 c          1 PQQ       0.379600
     12 O5          14.6310    51.9860    71.3520 o          1 PQQ      -0.510100
     13 C6A         16.3940    52.8900    69.9520 ca         1 PQQ       0.222500
     14 N6          16.5870    53.9290    70.8170 nb         1 PQQ      -0.616000
     15 C7          17.5460    54.8650    70.5610 ca         1 PQQ       0.240500
     16 C7X         17.7640    56.0460    71.5480 c          1 PQQ       0.618500
     17 O7A         17.0710    56.1280    72.5590 o          1 PQQ      -0.731000
     18 O7B         18.6270    56.8800    71.2950 o          1 PQQ      -0.731000
     19 C8          18.3540    54.7580    69.4120 ca         1 PQQ      -0.092000
     20 C9          18.1760    53.7040    68.4930 ca         1 PQQ      -0.147600
     21 C9X         19.1270    53.6500    67.3220 c          1 PQQ       0.725600
     22 O9A         20.3240    53.6370    67.5630 o          1 PQQ      -0.712000
     23 O9B         18.6690    53.6520    66.1890 o          1 PQQ      -0.712000
     24 C9A         17.1530    52.7430    68.7530 ca         1 PQQ      -0.018000
     25 HN1         18.0420    51.8980    66.0860 hn         1 PQQ       0.433000
     26 H3          15.3910    48.7660    67.0640 ha         1 PQQ       0.116000
     27 H8          19.1290    55.4990    69.2320 ha         1 PQQ       0.147000
@<TRIPOS>BOND
     1     1     2 1   
     2     1     8 1   
     3     1    25 1   
     4     2     3 1   
     5     2     6 2   
     6     3     4 1   
     7     3     5 1   
     8     6     7 1   
     9     6    26 1   
    10     7     8 2   
    11     7     9 1   
    12     8    24 1   
    13     9    10 2   
    14     9    11 1   
    15    11    12 2   
    16    11    13 1   
    17    13    14 ar  
    18    13    24 ar  
    19    14    15 ar  
    20    15    16 1   
    21    15    19 ar  
    22    16    17 1   
    23    16    18 1   
    24    19    20 ar  
    25    19    27 1   
    26    20    21 1   
    27    20    24 ar  
    28    21    22 1   
    29    21    23 1   
@<TRIPOS>SUBSTRUCTURE
     1 PQQ         1 TEMP              0 ****  ****    0 ROOT
