@<TRIPOS>MOLECULE
PQQ
   27    29     1     0     0
SMALL
abcg2


@<TRIPOS>ATOM
      1 N1          17.3380    51.2510    66.6750 na         1 PQQ      -0.033000
      2 C2          16.7800    50.0920    66.2120 cc         1 PQQ      -0.240600
      3 C2X         17.1490    49.5290    64.8700 c          1 PQQ       0.737600
      4 O2A         17.9720    50.1910    64.2090 o          1 PQQ      -0.739500
      5 O2B         16.5940    48.4600    64.5570 o          1 PQQ      -0.739500
      6 C3          15.8990    49.6400    67.1620 cd         1 PQQ      -0.133000
      7 C3A         15.9310    50.5740    68.2250 cd         1 PQQ      -0.327600
      8 C1A         16.8560    51.5680    67.8800 cc         1 PQQ      -0.077000
      9 C4          15.1810    50.6240    69.4380 c          1 PQQ       0.535700
     10 O4          14.3740    49.8000    69.8200 o          1 PQQ      -0.596100
     11 C5          15.4280    51.8750    70.3010 c          1 PQQ       0.379600
     12 O5          14.7810    52.0160    71.3060 o          1 PQQ      -0.510100
     13 C6A         16.4620    52.8770    69.8860 ca         1 PQQ       0.222500
     14 N6          16.6050    53.8820    70.7310 nb         1 PQQ      -0.616000
     15 C7          17.5290    54.7980    70.4880 ca         1 PQQ       0.240500
     16 C7X         17.6610    55.9730    71.4580 c          1 PQQ       0.618500
     17 O7A         16.8540    56.0090    72.3990 o          1 PQQ      -0.731000
     18 O7B         18.5710    56.7840    71.2010 o          1 PQQ      -0.731000
     19 C8          18.3740    54.6820    69.3910 ca         1 PQQ      -0.092000
     20 C9          18.2370    53.6520    68.4690 ca         1 PQQ      -0.147600
     21 C9X         19.2530    53.6510    67.3200 c          1 PQQ       0.725600
     22 O9A         20.3770    54.0730    67.6090 o          1 PQQ      -0.712000
     23 O9B         18.8720    53.2660    66.1900 o          1 PQQ      -0.712000
     24 C9A         17.2110    52.7160    68.7020 ca         1 PQQ      -0.018000
     25 HN1         17.9980    51.8840    66.1890 hn         1 PQQ       0.433000
     26 H3          15.2920    48.7510    67.1020 ha         1 PQQ       0.116000
     27 H8          19.1540    55.4150    69.2520 ha         1 PQQ       0.147000
@<TRIPOS>BOND
     1     1     2 1   
     2     1     8 1   
     3     1    25 1   
     4     2     3 1   
     5     2     6 2   
     6     3     4 1   
     7     3     5 1   
     8     6     7 1   
     9     6    26 1   
    10     7     8 2   
    11     7     9 1   
    12     8    24 1   
    13     9    10 2   
    14     9    11 1   
    15    11    12 2   
    16    11    13 1   
    17    13    14 ar  
    18    13    24 ar  
    19    14    15 ar  
    20    15    16 1   
    21    15    19 ar  
    22    16    17 1   
    23    16    18 1   
    24    19    20 ar  
    25    19    27 1   
    26    20    21 1   
    27    20    24 ar  
    28    21    22 1   
    29    21    23 1   
@<TRIPOS>SUBSTRUCTURE
     1 PQQ         1 TEMP              0 ****  ****    0 ROOT
