@<TRIPOS>MOLECULE
PQQ
   27    29     1     0     0
SMALL
bcc


@<TRIPOS>ATOM
      1 N1          17.3490    51.2580    66.6430 na         1 PQQ      -0.092100
      2 C2          16.7910    50.0900    66.1770 cc         1 PQQ      -0.195900
      3 C2X         17.1060    49.4740    64.8200 c          1 PQQ       0.957200
      4 O2A         17.9070    50.1010    64.1090 o          1 PQQ      -0.841300
      5 O2B         16.5080    48.4060    64.5890 o          1 PQQ      -0.841300
      6 C3          15.9250    49.6410    67.1390 cd         1 PQQ      -0.152000
      7 C3A         15.9540    50.5730    68.2070 cd         1 PQQ      -0.329600
      8 C1A         16.8730    51.5750    67.8560 cc         1 PQQ      -0.019300
      9 C4          15.2040    50.6050    69.4170 c          1 PQQ       0.534700
     10 O4          14.4180    49.7550    69.8040 o          1 PQQ      -0.599100
     11 C5          15.4070    51.8780    70.2700 c          1 PQQ       0.380600
     12 O5          14.7080    52.0230    71.2420 o          1 PQQ      -0.514100
     13 C6A         16.4530    52.8820    69.8780 ca         1 PQQ       0.289800
     14 N6          16.5810    53.8820    70.7370 nb         1 PQQ      -0.623000
     15 C7          17.5090    54.8060    70.5210 ca         1 PQQ       0.301800
     16 C7X         17.6400    56.0060    71.4990 c          1 PQQ       0.836100
     17 O7A         16.8890    56.0030    72.4820 o          1 PQQ      -0.831800
     18 O7B         18.5000    56.8480    71.1710 o          1 PQQ      -0.831800
     19 C8          18.3700    54.6850    69.4310 ca         1 PQQ      -0.181300
     20 C9          18.2550    53.6630    68.4940 ca         1 PQQ      -0.151600
     21 C9X         19.2900    53.6790    67.3440 c          1 PQQ       0.942200
     22 O9A         20.4000    54.1250    67.6450 o          1 PQQ      -0.817800
     23 O9B         18.9050    53.2830    66.2210 o          1 PQQ      -0.817800
     24 C9A         17.2220    52.7230    68.6990 ca         1 PQQ      -0.083300
     25 HN1         18.0180    51.8980    66.1680 hn         1 PQQ       0.379700
     26 H3          15.3240    48.7490    67.0730 ha         1 PQQ       0.136000
     27 H8          19.1570    55.4140    69.3140 ha         1 PQQ       0.163000
@<TRIPOS>BOND
     1     1     2 1   
     2     1     8 1   
     3     1    25 1   
     4     2     3 1   
     5     2     6 2   
     6     3     4 1   
     7     3     5 1   
     8     6     7 1   
     9     6    26 1   
    10     7     8 2   
    11     7     9 1   
    12     8    24 1   
    13     9    10 2   
    14     9    11 1   
    15    11    12 2   
    16    11    13 1   
    17    13    14 ar  
    18    13    24 ar  
    19    14    15 ar  
    20    15    16 1   
    21    15    19 ar  
    22    16    17 1   
    23    16    18 1   
    24    19    20 ar  
    25    19    27 1   
    26    20    21 1   
    27    20    24 ar  
    28    21    22 1   
    29    21    23 1   
@<TRIPOS>SUBSTRUCTURE
     1 PQQ         1 TEMP              0 ****  ****    0 ROOT
