@<TRIPOS>MOLECULE
PQR
   20    20     1     0     0
SMALL
abcg2


@<TRIPOS>ATOM
      1 O5          -3.5940     0.5060     0.1420 oh         1 PQR      -0.527100
      2 C6          -2.2510     0.4250     0.1220 ca         1 PQR       0.104100
      3 C7          -1.5800    -0.7920    -0.0560 ca         1 PQR       0.025100
      4 O4          -2.2850    -1.9540    -0.1910 oh         1 PQR      -0.556100
      5 C8          -0.1860    -0.8290    -0.0710 ca         1 PQR      -0.082000
      6 C9           0.5430     0.3420     0.1220 ca         1 PQR       0.254000
      7 N2           1.9560     0.2970     0.1610 nh         1 PQR      -0.533500
      8 N3           2.4800    -0.7150     0.7770 n2         1 PQR       0.133600
      9 O3           3.6920    -0.7160     0.7720 o          1 PQR      -0.293300
     10 C10          2.8030     1.3490    -0.4010 c3         1 PQR       0.182100
     11 C5          -1.5080     1.5860     0.2640 ca         1 PQR      -0.120000
     12 C4          -0.1270     1.5530     0.2880 ca         1 PQR      -0.098000
     13 H4           3.3620     1.8710     0.3760 h1         1 PQR       0.057367
     14 H5           3.5140     0.9250    -1.1090 h1         1 PQR       0.057367
     15 H6           2.1770     2.0610    -0.9280 h1         1 PQR       0.057367
     16 H7          -2.0380     2.5200     0.3950 ha         1 PQR       0.135000
     17 H2          -3.9740    -0.3760     0.2130 ho         1 PQR       0.474000
     18 H15         -2.7310    -1.9870    -1.0460 ho         1 PQR       0.459000
     19 H8           0.4230     2.4700     0.4490 ha         1 PQR       0.126000
     20 H1           0.3130    -1.7780    -0.2180 ha         1 PQR       0.145000
@<TRIPOS>BOND
     1     1     2 1   
     2     1    17 1   
     3     2     3 ar  
     4     2    11 ar  
     5     3     4 1   
     6     3     5 ar  
     7     4    18 1   
     8     5     6 ar  
     9     5    20 1   
    10     6     7 1   
    11     6    12 ar  
    12     7     8 1   
    13     7    10 1   
    14     8     9 2   
    15    10    13 1   
    16    10    14 1   
    17    10    15 1   
    18    11    12 ar  
    19    11    16 1   
    20    12    19 1   
@<TRIPOS>SUBSTRUCTURE
     1 PQR         1 TEMP              0 ****  ****    0 ROOT
