@<TRIPOS>MOLECULE
PQR
   20    20     1     0     0
SMALL
No Charge or Current Charge


@<TRIPOS>ATOM
      1 O5          -3.6700     0.6290     0.2320 oh         1 PQR      -0.527100
      2 C6          -2.3110     0.5410     0.1890 ca         1 PQR       0.104100
      3 C7          -1.7050    -0.6960    -0.1030 ca         1 PQR       0.025100
      4 O4          -2.4910    -1.7960    -0.3440 oh         1 PQR      -0.556100
      5 C8          -0.3020    -0.7940    -0.1480 ca         1 PQR      -0.082000
      6 C9           0.5120     0.3380     0.0940 ca         1 PQR       0.254000
      7 N2           1.9320     0.2420     0.0500 nh         1 PQR      -0.533500
      8 N3           2.5110    -0.9420     0.4180 n2         1 PQR       0.133600
      9 O3           3.7300    -0.9850     0.4010 o          1 PQR      -0.293300
     10 C10          2.7620     1.3980    -0.3920 c3         1 PQR       0.182100
     11 C5          -1.5200     1.6710     0.4350 ca         1 PQR      -0.120000
     12 C4          -0.1170     1.5690     0.3880 ca         1 PQR      -0.098000
     13 H4           3.1840     1.9230     0.4750 h1         1 PQR       0.057367
     14 H5           3.5850     1.0690    -1.0410 h1         1 PQR       0.057367
     15 H6           2.1650     2.1100    -0.9750 h1         1 PQR       0.057367
     16 H7          -1.9900     2.6240     0.6660 ha         1 PQR       0.135000
     17 H2          -4.0060    -0.2740     0.0310 ho         1 PQR       0.474000
     18 H15         -1.9180    -2.5730    -0.5300 ho         1 PQR       0.459000
     19 H8           0.4780     2.4530     0.5990 ha         1 PQR       0.126000
     20 H1           0.1590    -1.7480    -0.3850 ha         1 PQR       0.145000
@<TRIPOS>BOND
     1     1     2 1   
     2     1    17 1   
     3     2     3 ar  
     4     2    11 ar  
     5     3     4 1   
     6     3     5 ar  
     7     4    18 1   
     8     5     6 ar  
     9     5    20 1   
    10     6     7 1   
    11     6    12 ar  
    12     7     8 1   
    13     7    10 1   
    14     8     9 2   
    15    10    13 1   
    16    10    14 1   
    17    10    15 1   
    18    11    12 ar  
    19    11    16 1   
    20    12    19 1   
@<TRIPOS>SUBSTRUCTURE
     1 PQR         1 TEMP              0 ****  ****    0 ROOT
