@<TRIPOS>MOLECULE
PQS
   23    24     1     0     0
SMALL
bcc


@<TRIPOS>ATOM
      1 C10          2.3350     0.0080     0.0160 ca         1 PQS      -0.110600
      2 C11          1.5960    -1.1520    -0.2070 ca         1 PQS      -0.119500
      3 C12          0.2110    -1.1320    -0.1980 ca         1 PQS      -0.124500
      4 C13          3.8580    -0.0180     0.0100 c          1 PQS       0.921200
      5 C01         -4.0720     1.1780    -0.2350 ca         1 PQS      -0.097000
      6 C02         -2.6880     1.2270    -0.2510 ca         1 PQS      -0.250300
      7 C03         -1.9630     0.0670     0.0280 cp         1 PQS       0.512800
      8 C05         -3.8970    -1.1290     0.3010 ca         1 PQS       0.405200
      9 C06         -4.6990    -0.0250     0.0510 ca         1 PQS      -0.281300
     10 C07         -0.4850     0.0570     0.0280 cp         1 PQS      -0.202500
     11 C08          0.2540     1.2190     0.2560 ca         1 PQS      -0.124500
     12 C09          1.6400     1.1920     0.2500 ca         1 PQS      -0.119500
     13 N04         -2.5730    -1.0890     0.2920 nb         1 PQS      -0.678000
     14 O14          4.3950    -1.1270    -0.1700 o          1 PQS      -0.823300
     15 O15          4.4350     1.0720     0.1860 o          1 PQS      -0.823300
     16 H1           2.1130    -2.0830    -0.3950 ha         1 PQS       0.146500
     17 H2          -0.3400    -2.0460    -0.3770 ha         1 PQS       0.113500
     18 H5          -4.3470    -2.0910     0.5210 h4         1 PQS       0.004100
     19 H6          -5.7770    -0.1130     0.0740 ha         1 PQS       0.126000
     20 H7          -0.2490     2.1550     0.4640 ha         1 PQS       0.113500
     21 H8           2.1890     2.1040     0.4400 ha         1 PQS       0.146500
     22 H3          -4.6510     2.0660    -0.4530 ha         1 PQS       0.122000
     23 H4          -2.1840     2.1510    -0.4970 ha         1 PQS       0.143000
@<TRIPOS>BOND
     1     1     2 ar  
     2     1     4 1   
     3     1    12 ar  
     4     2     3 ar  
     5     2    16 1   
     6     3    10 ar  
     7     3    17 1   
     8     4    14 1   
     9     4    15 1   
    10     5     6 ar  
    11     5     9 ar  
    12     5    22 1   
    13     6     7 ar  
    14     6    23 1   
    15     7    10 1   
    16     7    13 ar  
    17     8     9 ar  
    18     8    13 ar  
    19     8    18 1   
    20     9    19 1   
    21    10    11 ar  
    22    11    12 ar  
    23    11    20 1   
    24    12    21 1   
@<TRIPOS>SUBSTRUCTURE
     1 PQS         1 TEMP              0 ****  ****    0 ROOT
