@<TRIPOS>MOLECULE
PQS
   23    24     1     0     0
SMALL
No Charge or Current Charge


@<TRIPOS>ATOM
      1 C10          2.3920     0.0060     0.0180 ca         1 PQS      -0.110600
      2 C11          1.6500    -1.1760    -0.2040 ca         1 PQS      -0.101500
      3 C12          0.2450    -1.1570    -0.2000 ca         1 PQS      -0.106500
      4 C13          3.9140    -0.0130     0.0150 c          1 PQS       0.710600
      5 C01         -4.1400     1.2070    -0.2340 ca         1 PQS      -0.079000
      6 C02         -2.7370     1.2410    -0.2490 ca         1 PQS      -0.167000
      7 C03         -1.9920     0.0640     0.0230 cp         1 PQS       0.447500
      8 C05         -3.9680    -1.1450     0.3030 ca         1 PQS       0.339900
      9 C06         -4.7630    -0.0160     0.0520 ca         1 PQS      -0.198000
     10 C07         -0.4830     0.0430     0.0220 cp         1 PQS      -0.202500
     11 C08          0.2750     1.2220     0.2480 ca         1 PQS      -0.106500
     12 C09          1.6800     1.2050     0.2460 ca         1 PQS      -0.101500
     13 N04         -2.6180    -1.1090     0.2860 nb         1 PQS      -0.678000
     14 O14          4.4880    -1.0760    -0.1840 o          1 PQS      -0.718000
     15 O15          4.5150     1.0350     0.2110 o          1 PQS      -0.718000
     16 H1           2.1620    -2.1190    -0.3820 ha         1 PQS       0.128500
     17 H2          -0.2840    -2.0900    -0.3810 ha         1 PQS       0.095500
     18 H5          -4.4250    -2.1090     0.5230 h4         1 PQS       0.004100
     19 H6          -5.8460    -0.0960     0.0750 ha         1 PQS       0.108000
     20 H7          -0.2250     2.1670     0.4450 ha         1 PQS       0.095500
     21 H8           2.2170     2.1340     0.4260 ha         1 PQS       0.128500
     22 H3          -4.7250     2.1010    -0.4410 ha         1 PQS       0.104000
     23 H4          -2.2300     2.1710    -0.4830 ha         1 PQS       0.125000
@<TRIPOS>BOND
     1     1     2 ar  
     2     1     4 1   
     3     1    12 ar  
     4     2     3 ar  
     5     2    16 1   
     6     3    10 ar  
     7     3    17 1   
     8     4    14 1   
     9     4    15 1   
    10     5     6 ar  
    11     5     9 ar  
    12     5    22 1   
    13     6     7 ar  
    14     6    23 1   
    15     7    10 1   
    16     7    13 ar  
    17     8     9 ar  
    18     8    13 ar  
    19     8    18 1   
    20     9    19 1   
    21    10    11 ar  
    22    11    12 ar  
    23    11    20 1   
    24    12    21 1   
@<TRIPOS>SUBSTRUCTURE
     1 PQS         1 TEMP              0 ****  ****    0 ROOT
