@<TRIPOS>MOLECULE
PQT
   26    27     1     0     0
SMALL
abcg2


@<TRIPOS>ATOM
      1 C1           1.3570    -4.2020     4.3870 ca         1 PQT      -0.191000
      2 C2           1.6220    -5.2410     5.2990 ca         1 PQT       0.365000
      3 C3           0.5430    -6.1120     5.5520 ca         1 PQT       0.041000
      4 C4          -0.6660    -6.0050     4.8830 ca         1 PQT      -0.073000
      5 C5          -0.8780    -4.9930     3.9610 ca         1 PQT      -0.183000
      6 C6           3.8250    -4.2740     5.7650 c5         1 PQT       0.217800
      7 C8           5.0080    -6.2910     6.0330 c5         1 PQT      -0.075400
      8 C9           3.5260    -6.6270     6.1510 c5         1 PQT       0.209800
      9 C10          6.3770    -4.0960     6.1040 c          1 PQT       0.728000
     10 O1           6.2800    -2.9210     5.6970 o          1 PQT      -0.729500
     11 N            2.8470    -5.3460     5.9090 nh         1 PQT      -0.811400
     12 C            0.1410    -4.0790     3.7370 ca         1 PQT      -0.072000
     13 C7           5.0680    -4.8250     6.4430 c5         1 PQT      -0.202700
     14 CL           0.6290    -7.3130     6.8090 cl         1 PQT      -0.236000
     15 H1           2.1280    -3.4760     4.1710 ha         1 PQT       0.129000
     16 H2          -1.4550    -6.7100     5.1100 ha         1 PQT       0.108000
     17 H3          -1.8270    -4.9130     3.4490 ha         1 PQT       0.101000
     18 H4           4.0490    -4.0580     4.7120 h1         1 PQT       0.047200
     19 H5           3.4570    -3.3500     6.2170 h1         1 PQT       0.047200
     20 H6           5.3460    -6.4030     4.9990 hc         1 PQT       0.049700
     21 H7           5.6210    -6.9440     6.6530 hc         1 PQT       0.049700
     22 H8           3.2160    -7.3860     5.4290 h1         1 PQT       0.033200
     23 H9           3.3070    -7.0120     7.1490 h1         1 PQT       0.033200
     24 H11         -0.0000    -3.2640     3.0380 ha         1 PQT       0.101000
     25 H12          4.9260    -4.7650     7.5310 hc         1 PQT       0.042700
     26 O            7.4280    -4.7390     6.2950 o          1 PQT      -0.729500
@<TRIPOS>BOND
     1     1     2 ar  
     2     1    12 ar  
     3     1    15 1   
     4     2     3 ar  
     5     2    11 1   
     6     3     4 ar  
     7     3    14 1   
     8     4     5 ar  
     9     4    16 1   
    10     5    12 ar  
    11     5    17 1   
    12     6    11 1   
    13     6    13 1   
    14     6    18 1   
    15     6    19 1   
    16     7     8 1   
    17     7    13 1   
    18     7    20 1   
    19     7    21 1   
    20     8    11 1   
    21     8    22 1   
    22     8    23 1   
    23     9    10 1   
    24     9    13 1   
    25     9    26 1   
    26    12    24 1   
    27    13    25 1   
@<TRIPOS>SUBSTRUCTURE
     1 PQT         1 TEMP              0 ****  ****    0 ROOT
