@<TRIPOS>MOLECULE
PQT
   26    27     1     0     0
SMALL
No Charge or Current Charge


@<TRIPOS>ATOM
      1 C1           1.3670    -4.3310     4.1680 ca         1 PQT      -0.191000
      2 C2           1.6010    -5.2540     5.2090 ca         1 PQT       0.365000
      3 C3           0.4980    -6.0030     5.7120 ca         1 PQT       0.041000
      4 C4          -0.7870    -5.8200     5.1680 ca         1 PQT      -0.073000
      5 C5          -0.9940    -4.9000     4.1290 ca         1 PQT      -0.183000
      6 C6           3.8480    -4.2520     5.9220 c5         1 PQT       0.217800
      7 C8           5.1160    -6.2720     5.7310 c5         1 PQT      -0.075400
      8 C9           3.6290    -6.7080     5.7770 c5         1 PQT       0.209800
      9 C10          6.3250    -4.0980     6.4190 c          1 PQT       0.728000
     10 O1           6.7080    -3.7640     5.3070 o          1 PQT      -0.729500
     11 N            2.9230    -5.3990     5.7130 nh         1 PQT      -0.811400
     12 C            0.0820    -4.1540     3.6290 ca         1 PQT      -0.072000
     13 C7           5.0550    -4.9650     6.5730 c5         1 PQT      -0.202700
     14 Cl           0.6550    -7.1530     7.0500 cl         1 PQT      -0.236000
     15 H1           2.1900    -3.7530     3.7600 ha         1 PQT       0.129000
     16 H2          -1.6250    -6.3910     5.5590 ha         1 PQT       0.108000
     17 H3          -1.9910    -4.7640     3.7130 ha         1 PQT       0.101000
     18 H4           4.1200    -3.7820     4.9660 h1         1 PQT       0.047200
     19 H5           3.4240    -3.4830     6.5840 h1         1 PQT       0.047200
     20 H6           5.4380    -6.0860     4.6990 hc         1 PQT       0.049700
     21 H7           5.7870    -7.0260     6.1570 hc         1 PQT       0.049700
     22 H8           3.3730    -7.3660     4.9350 h1         1 PQT       0.033200
     23 H9           3.4090    -7.2350     6.7150 h1         1 PQT       0.033200
     24 H11         -0.0780    -3.4410     2.8230 ha         1 PQT       0.101000
     25 H12          4.8710    -5.1750     7.6330 hc         1 PQT       0.042700
     26 O            6.9290    -3.7720     7.4300 o          1 PQT      -0.729500
@<TRIPOS>BOND
     1     1     2 ar  
     2     1    12 ar  
     3     1    15 1   
     4     2     3 ar  
     5     2    11 1   
     6     3     4 ar  
     7     3    14 1   
     8     4     5 ar  
     9     4    16 1   
    10     5    12 ar  
    11     5    17 1   
    12     6    11 1   
    13     6    13 1   
    14     6    18 1   
    15     6    19 1   
    16     7     8 1   
    17     7    13 1   
    18     7    20 1   
    19     7    21 1   
    20     8    11 1   
    21     8    22 1   
    22     8    23 1   
    23     9    10 1   
    24     9    13 1   
    25     9    26 1   
    26    12    24 1   
    27    13    25 1   
@<TRIPOS>SUBSTRUCTURE
     1 PQT         1 TEMP              0 ****  ****    0 ROOT
