@<TRIPOS>MOLECULE
PQU
   45    48     1     0     0
SMALL
No Charge or Current Charge


@<TRIPOS>ATOM
      1 C10         70.1910    58.1130   163.9170 ca         1 PQU      -0.182000
      2 C11         69.3060    57.5370   162.9980 ca         1 PQU       0.596300
      3 C13         67.5340    57.7820   164.4650 ca         1 PQU       0.402900
      4 C15         69.3420    56.0680   161.0740 ca         1 PQU       0.105100
      5 C16         69.0550    54.8510   161.7260 ca         1 PQU      -0.102000
      6 C17         68.6120    53.7420   160.9830 ca         1 PQU      -0.101000
      7 C18         68.4640    53.8450   159.5880 ca         1 PQU      -0.107000
      8 C19         68.7640    55.0530   158.9350 ca         1 PQU      -0.101000
      9 C20         69.2080    56.1620   159.6780 ca         1 PQU      -0.102000
     10 C21         68.9640    55.4870   169.7600 ca         1 PQU       0.253000
     11 C22         69.1850    54.7890   170.9610 ca         1 PQU      -0.138500
     12 C23         70.1860    53.8050   171.0420 ca         1 PQU      -0.080000
     13 C24         70.9720    53.5100   169.9160 ca         1 PQU      -0.131000
     14 C25         70.7550    54.1960   168.7100 ca         1 PQU      -0.080000
     15 C26         69.7540    55.1790   168.6310 ca         1 PQU      -0.138500
     16 C3          68.9380    58.5670   168.7750 c          1 PQU       0.687100
     17 C5          67.7330    58.7700   166.8110 c5         1 PQU       0.166300
     18 C6          67.2110    57.5200   167.5850 c          1 PQU       0.566000
     19 C7          66.6100    59.8230   166.6590 c3         1 PQU      -0.087100
     20 C8          68.3480    58.3610   165.4620 ca         1 PQU      -0.201300
     21 C9          69.7190    58.5280   165.1700 ca         1 PQU      -0.014000
     22 N2          68.0330    57.5060   168.7020 n          1 PQU      -0.277800
     23 N3          67.9920    57.3820   163.2600 nb         1 PQU      -0.730000
     24 O14         69.8040    57.1620   161.7720 os         1 PQU      -0.374400
     25 O3          69.7420    58.7780   169.6710 o          1 PQU      -0.484000
     26 O4          68.7650    59.3510   167.6650 os         1 PQU      -0.414100
     27 O6          66.3320    56.7120   167.3050 o          1 PQU      -0.451000
     28 H101        71.2380    58.2290   163.6530 ha         1 PQU       0.145000
     29 H131        66.4690    57.6290   164.6380 h4         1 PQU       0.039100
     30 H161        69.1780    54.7610   162.8030 ha         1 PQU       0.126000
     31 H171        68.3860    52.8050   161.4870 ha         1 PQU       0.117000
     32 H181        68.1210    52.9870   159.0140 ha         1 PQU       0.116000
     33 H191        68.6550    55.1300   157.8550 ha         1 PQU       0.117000
     34 H201        69.4450    57.0950   159.1740 ha         1 PQU       0.126000
     35 H221        68.5810    55.0100   171.8370 ha         1 PQU       0.116000
     36 H231        70.3520    53.2720   171.9770 ha         1 PQU       0.115000
     37 H241        71.7470    52.7480   169.9780 ha         1 PQU       0.117000
     38 H251        71.3600    53.9640   167.8360 ha         1 PQU       0.115000
     39 H261        69.5940    55.6920   167.6870 ha         1 PQU       0.116000
     40 H71         66.2450    60.1570   167.6370 hc         1 PQU       0.064367
     41 H72         66.9730    60.7050   166.1170 hc         1 PQU       0.064367
     42 H73         65.7520    59.4220   166.1070 hc         1 PQU       0.064367
     43 H91         70.4100    58.9710   165.8840 ha         1 PQU       0.133000
     44 HN11        67.4780    56.7220   170.5880 hn         1 PQU       0.475000
     45 N1          67.9530    56.4610   169.7160 nu         1 PQU      -0.644200
@<TRIPOS>BOND
     1     1     2 ar  
     2     1    21 ar  
     3     1    28 1   
     4     2    23 ar  
     5     2    24 1   
     6     3    20 ar  
     7     3    23 ar  
     8     3    29 1   
     9     4     5 ar  
    10     4     9 ar  
    11     4    24 1   
    12     5     6 ar  
    13     5    30 1   
    14     6     7 ar  
    15     6    31 1   
    16     7     8 ar  
    17     7    32 1   
    18     8     9 ar  
    19     8    33 1   
    20     9    34 1   
    21    10    11 ar  
    22    10    15 ar  
    23    10    45 1   
    24    11    12 ar  
    25    11    35 1   
    26    12    13 ar  
    27    12    36 1   
    28    13    14 ar  
    29    13    37 1   
    30    14    15 ar  
    31    14    38 1   
    32    15    39 1   
    33    16    22 1   
    34    16    25 2   
    35    16    26 1   
    36    17    18 1   
    37    17    19 1   
    38    17    20 1   
    39    17    26 1   
    40    18    22 1   
    41    18    27 2   
    42    19    40 1   
    43    19    41 1   
    44    19    42 1   
    45    20    21 ar  
    46    21    43 1   
    47    22    45 1   
    48    44    45 1   
@<TRIPOS>SUBSTRUCTURE
     1 PQU         1 TEMP              0 ****  ****    0 ROOT
