@<TRIPOS>MOLECULE
PQU
   45    48     1     0     0
SMALL
abcg2


@<TRIPOS>ATOM
      1 C10         69.7020    58.9620   163.4630 ca         1 PQU      -0.182000
      2 C11         69.3550    57.6910   162.9890 ca         1 PQU       0.596300
      3 C13         68.1480    57.2160   164.8630 ca         1 PQU       0.402900
      4 C15         69.5220    56.0890   161.2440 ca         1 PQU       0.105100
      5 C16         70.3640    55.0190   161.5060 ca         1 PQU      -0.102000
      6 C17         70.0840    53.7850   160.9260 ca         1 PQU      -0.101000
      7 C18         68.9770    53.6350   160.0960 ca         1 PQU      -0.107000
      8 C19         68.1470    54.7230   159.8410 ca         1 PQU      -0.101000
      9 C20         68.4180    55.9600   160.4170 ca         1 PQU      -0.102000
     10 C21         68.6800    55.4120   169.5800 ca         1 PQU       0.253000
     11 C22         68.7790    54.6500   170.7470 ca         1 PQU      -0.138500
     12 C23         69.5340    53.4860   170.7520 ca         1 PQU      -0.080000
     13 C24         70.2000    53.0680   169.6020 ca         1 PQU      -0.131000
     14 C25         70.1000    53.8330   168.4450 ca         1 PQU      -0.080000
     15 C26         69.3430    55.0000   168.4250 ca         1 PQU      -0.138500
     16 C3          69.1490    58.4130   168.6810 c          1 PQU       0.687100
     17 C5          67.8930    58.8740   166.7830 c5         1 PQU       0.166300
     18 C6          67.2430    57.7370   167.5690 c          1 PQU       0.566000
     19 C7          66.9670    60.0790   166.7260 c3         1 PQU      -0.087100
     20 C8          68.4170    58.4500   165.4290 ca         1 PQU      -0.201300
     21 C9          69.2200    59.3360   164.6960 ca         1 PQU      -0.014000
     22 N2          68.0730    57.5180   168.6470 n          1 PQU      -0.277800
     23 N3          68.6050    56.8410   163.6590 nb         1 PQU      -0.730000
     24 O14         69.8350    57.3460   161.7650 os         1 PQU      -0.374400
     25 O3          70.0040    58.4620   169.5200 o          1 PQU      -0.484000
     26 O4          69.0550    59.2260   167.6250 os         1 PQU      -0.414100
     27 O6          66.2180    57.1570   167.3180 o          1 PQU      -0.451000
     28 H101        70.3280    59.6140   162.8690 ha         1 PQU       0.145000
     29 H131        67.5360    56.4870   165.3760 h4         1 PQU       0.039100
     30 H161        71.2190    55.1550   162.1550 ha         1 PQU       0.126000
     31 H171        70.7340    52.9420   161.1240 ha         1 PQU       0.117000
     32 H181        68.7630    52.6730   159.6470 ha         1 PQU       0.116000
     33 H191        67.2870    54.6120   159.1930 ha         1 PQU       0.117000
     34 H201        67.7840    56.8180   160.2320 ha         1 PQU       0.126000
     35 H221        68.2650    54.9760   171.6430 ha         1 PQU       0.116000
     36 H231        69.6040    52.9050   171.6630 ha         1 PQU       0.115000
     37 H241        70.7900    52.1610   169.6100 ha         1 PQU       0.117000
     38 H251        70.6120    53.5230   167.5430 ha         1 PQU       0.115000
     39 H261        69.2750    55.5780   167.5130 ha         1 PQU       0.116000
     40 H71         66.6630    60.3740   167.7310 hc         1 PQU       0.064367
     41 H72         67.4730    60.9140   166.2430 hc         1 PQU       0.064367
     42 H73         66.0820    59.8180   166.1460 hc         1 PQU       0.064367
     43 H91         69.4710    60.3090   165.0970 ha         1 PQU       0.133000
     44 HN11        67.6920    56.9580   170.5130 hn         1 PQU       0.475000
     45 N1          67.8470    56.5520   169.5990 nu         1 PQU      -0.644200
@<TRIPOS>BOND
     1     1     2 ar  
     2     1    21 ar  
     3     1    28 1   
     4     2    23 ar  
     5     2    24 1   
     6     3    20 ar  
     7     3    23 ar  
     8     3    29 1   
     9     4     5 ar  
    10     4     9 ar  
    11     4    24 1   
    12     5     6 ar  
    13     5    30 1   
    14     6     7 ar  
    15     6    31 1   
    16     7     8 ar  
    17     7    32 1   
    18     8     9 ar  
    19     8    33 1   
    20     9    34 1   
    21    10    11 ar  
    22    10    15 ar  
    23    10    45 1   
    24    11    12 ar  
    25    11    35 1   
    26    12    13 ar  
    27    12    36 1   
    28    13    14 ar  
    29    13    37 1   
    30    14    15 ar  
    31    14    38 1   
    32    15    39 1   
    33    16    22 1   
    34    16    25 2   
    35    16    26 1   
    36    17    18 1   
    37    17    19 1   
    38    17    20 1   
    39    17    26 1   
    40    18    22 1   
    41    18    27 2   
    42    19    40 1   
    43    19    41 1   
    44    19    42 1   
    45    20    21 ar  
    46    21    43 1   
    47    22    45 1   
    48    44    45 1   
@<TRIPOS>SUBSTRUCTURE
     1 PQU         1 TEMP              0 ****  ****    0 ROOT
