@<TRIPOS>MOLECULE
PQV
   34    34     1     0     0
SMALL
abcg2


@<TRIPOS>ATOM
      1 CAI          2.8160     1.3130    -0.0490 c3         1 PQV       0.180800
      2 CAF          4.0090     1.1070     0.8820 c3         1 PQV      -0.073400
      3 CAD          5.1990     0.3390     0.3060 c3         1 PQV      -0.070400
      4 CAE          4.8410    -0.8500    -0.5870 c3         1 PQV      -0.070400
      5 CAG          3.5810    -1.6120    -0.1810 c3         1 PQV      -0.073400
      6 CAJ          2.2820    -0.9880    -0.6780 c3         1 PQV       0.180800
      7 NAO          1.8530     0.2200     0.0060 n3         1 PQV      -0.735600
      8 CAK          0.5280     0.6180    -0.4310 c3         1 PQV       0.160800
      9 CAH         -0.5570    -0.1740     0.2900 c3         1 PQV       0.102000
     10 NAM         -1.8610     0.2520    -0.1710 ns         1 PQV      -0.509900
     11 CAN         -3.0020    -0.1820     0.3800 c          1 PQV       0.519800
     12 OAA         -3.0470    -0.9800     1.3040 o          1 PQV      -0.567100
     13 CAC         -4.2180     0.4090    -0.2460 ce         1 PQV       0.295200
     14 NAL         -5.3420     0.0600     0.2220 n2         1 PQV      -0.255700
     15 OAB         -6.3830     0.6470    -0.4020 oh         1 PQV      -0.511000
     16 H1           2.2940     2.2140     0.2790 h1         1 PQV       0.027200
     17 H2           3.1560     1.5190    -1.0780 h1         1 PQV       0.027200
     18 H3           4.3650     2.0880     1.2070 hc         1 PQV       0.047200
     19 H4           3.6390     0.6120     1.7830 hc         1 PQV       0.047200
     20 H5           5.8290     1.0250    -0.2660 hc         1 PQV       0.035950
     21 H6           5.8150    -0.0040     1.1420 hc         1 PQV       0.035950
     22 H7           4.7150    -0.5120    -1.6210 hc         1 PQV       0.035950
     23 H8           5.6900    -1.5370    -0.6070 hc         1 PQV       0.035950
     24 H9           3.6270    -2.6130    -0.6190 hc         1 PQV       0.047200
     25 H10          3.5380    -1.7600     0.9010 hc         1 PQV       0.047200
     26 H11          2.3850    -0.8080    -1.7640 h1         1 PQV       0.027200
     27 H12          1.4900    -1.7320    -0.5700 h1         1 PQV       0.027200
     28 H14          0.3830     1.6750    -0.1970 h1         1 PQV       0.030700
     29 H15          0.4000     0.5210    -1.5230 h1         1 PQV       0.030700
     30 H16         -0.4370    -1.2470     0.1230 h1         1 PQV       0.062200
     31 H17         -0.4660    -0.0030     1.3640 h1         1 PQV       0.062200
     32 H18         -1.9070     0.9040    -0.9380 hn         1 PQV       0.312500
     33 H19         -4.1160     1.1150    -1.0690 h4         1 PQV       0.007800
     34 H22         -7.1640     0.3070     0.0490 ho         1 PQV       0.480000
@<TRIPOS>BOND
     1     1     2 1   
     2     1     7 1   
     3     1    16 1   
     4     1    17 1   
     5     2     3 1   
     6     2    18 1   
     7     2    19 1   
     8     3     4 1   
     9     3    20 1   
    10     3    21 1   
    11     4     5 1   
    12     4    22 1   
    13     4    23 1   
    14     5     6 1   
    15     5    24 1   
    16     5    25 1   
    17     6     7 1   
    18     6    26 1   
    19     6    27 1   
    20     7     8 1   
    21     8     9 1   
    22     8    28 1   
    23     8    29 1   
    24     9    10 1   
    25     9    30 1   
    26     9    31 1   
    27    10    11 1   
    28    10    32 1   
    29    11    12 2   
    30    11    13 1   
    31    13    14 2   
    32    13    33 1   
    33    14    15 1   
    34    15    34 1   
@<TRIPOS>SUBSTRUCTURE
     1 PQV         1 TEMP              0 ****  ****    0 ROOT
