@<TRIPOS>MOLECULE
PQV
   34    34     1     0     0
SMALL
No Charge or Current Charge


@<TRIPOS>ATOM
      1 CAI          2.6310     1.2330     0.2340 c3         1 PQV       0.180800
      2 CAF          3.8960     1.0700     1.1050 c3         1 PQV      -0.073400
      3 CAD          5.1580     0.5640     0.3720 c3         1 PQV      -0.070400
      4 CAE          4.9420    -0.5810    -0.6430 c3         1 PQV      -0.070400
      5 CAG          3.8140    -1.5740    -0.2860 c3         1 PQV      -0.073400
      6 CAJ          2.4000    -1.0870    -0.6880 c3         1 PQV       0.180800
      7 NAO          1.7970     0.0050     0.1290 n3         1 PQV      -0.735600
      8 CAK          0.4070     0.3380    -0.3000 c3         1 PQV       0.160800
      9 CAH         -0.6320    -0.8090    -0.1760 c3         1 PQV       0.102000
     10 NAM         -1.9980    -0.3900    -0.5290 ns         1 PQV      -0.509900
     11 CAN         -2.8140     0.3980     0.2690 c          1 PQV       0.519800
     12 OAA         -2.4500     0.7590     1.3850 o          1 PQV      -0.567100
     13 CAC         -4.1820     0.6820    -0.3100 ce         1 PQV       0.295200
     14 NAL         -5.1860     0.9440     0.4790 n2         1 PQV      -0.255700
     15 OAB         -6.4280     1.0500    -0.1720 oh         1 PQV      -0.511000
     16 H1           2.0340     2.0230     0.7090 h1         1 PQV       0.027200
     17 H2           2.9090     1.6060    -0.7610 h1         1 PQV       0.027200
     18 H3           4.1360     2.0440     1.5500 hc         1 PQV       0.047200
     19 H4           3.6650     0.4060     1.9470 hc         1 PQV       0.047200
     20 H5           5.6300     1.4040    -0.1520 hc         1 PQV       0.035950
     21 H6           5.8800     0.2340     1.1290 hc         1 PQV       0.035950
     22 H7           4.7390    -0.1520    -1.6330 hc         1 PQV       0.035950
     23 H8           5.8850    -1.1330    -0.7420 hc         1 PQV       0.035950
     24 H9           4.0050    -2.5070    -0.8300 hc         1 PQV       0.047200
     25 H10          3.8420    -1.8280     0.7800 hc         1 PQV       0.047200
     26 H11          2.4260    -0.7870    -1.7440 h1         1 PQV       0.027200
     27 H12          1.7540    -1.9720    -0.6320 h1         1 PQV       0.027200
     28 H14          0.0370     1.1740     0.3070 h1         1 PQV       0.030700
     29 H15          0.4150     0.6850    -1.3420 h1         1 PQV       0.030700
     30 H16         -0.3520    -1.6370    -0.8390 h1         1 PQV       0.062200
     31 H17         -0.6300    -1.1880     0.8550 h1         1 PQV       0.062200
     32 H18         -2.3710    -0.6800    -1.4270 hn         1 PQV       0.312500
     33 H19         -4.3480     0.3990    -1.3520 h4         1 PQV       0.007800
     34 H22         -7.0770     1.2490     0.5480 ho         1 PQV       0.480000
@<TRIPOS>BOND
     1     1     2 1   
     2     1     7 1   
     3     1    16 1   
     4     1    17 1   
     5     2     3 1   
     6     2    18 1   
     7     2    19 1   
     8     3     4 1   
     9     3    20 1   
    10     3    21 1   
    11     4     5 1   
    12     4    22 1   
    13     4    23 1   
    14     5     6 1   
    15     5    24 1   
    16     5    25 1   
    17     6     7 1   
    18     6    26 1   
    19     6    27 1   
    20     7     8 1   
    21     8     9 1   
    22     8    28 1   
    23     8    29 1   
    24     9    10 1   
    25     9    30 1   
    26     9    31 1   
    27    10    11 1   
    28    10    32 1   
    29    11    12 2   
    30    11    13 1   
    31    13    14 2   
    32    13    33 1   
    33    14    15 1   
    34    15    34 1   
@<TRIPOS>SUBSTRUCTURE
     1 PQV         1 TEMP              0 ****  ****    0 ROOT
