@<TRIPOS>MOLECULE
PQX
   41    43     1     0     0
SMALL
abcg2


@<TRIPOS>ATOM
      1 C7          -9.9220   -30.4970     0.7080 c          1 PQX       0.711000
      2 C8          -9.1050   -31.8010     0.6310 c6         1 PQX      -0.184700
      3 C10         -8.9500   -34.2620     1.1400 c6         1 PQX       0.163300
      4 C13         -7.9800   -35.8490    -0.4140 c3         1 PQX       0.222800
      5 C15         -7.7450   -36.2340    -1.8830 c3         1 PQX      -0.084100
      6 C17         -8.3870   -38.8540     1.8890 ca         1 PQX      -0.108000
      7 C20        -10.0030   -37.4010     0.0950 ca         1 PQX      -0.019000
      8 C21        -11.8510   -38.9570     0.5610 ca         1 PQX      -0.119000
      9 C22        -12.6660   -38.2690    -0.2990 ca         1 PQX      -0.104000
     10 C24        -10.8810   -36.7100    -0.7800 ca         1 PQX      -0.068000
     11 C11         -8.0190   -33.4690    -0.9280 c6         1 PQX       0.163300
     12 C12         -8.8080   -32.1700    -0.8260 c6         1 PQX      -0.056400
     13 C14         -8.6480   -37.0010     0.3250 ca         1 PQX      -0.040300
     14 C16         -7.8840   -37.7260     1.2100 ca         1 PQX      -0.128000
     15 C18         -9.6770   -39.2600     1.6790 ca         1 PQX      -0.112000
     16 C19        -10.5120   -38.5490     0.7840 ca         1 PQX      -0.040000
     17 C23        -12.1730   -37.1320    -0.9730 ca         1 PQX      -0.125000
     18 C9          -9.7780   -32.9950     1.3040 c6         1 PQX      -0.056400
     19 N4          -8.7100   -34.5790    -0.2700 n3         1 PQX      -0.717600
     20 O3         -11.1570   -30.5670     0.4690 o          1 PQX      -0.737500
     21 H2          -8.1490   -31.6130     1.1310 hc         1 PQX       0.028700
     22 H3          -9.4700   -35.1010     1.6010 h1         1 PQX       0.013950
     23 H4          -7.9890   -34.1480     1.6770 h1         1 PQX       0.013950
     24 H5          -6.9840   -35.7360     0.0490 h1         1 PQX       0.013700
     25 H6          -7.3300   -37.2420    -1.9250 hc         1 PQX       0.035367
     26 H7          -8.6740   -36.2210    -2.4520 hc         1 PQX       0.035367
     27 H8          -7.0330   -35.5650    -2.3640 hc         1 PQX       0.035367
     28 H10        -12.2180   -39.8290     1.0900 ha         1 PQX       0.100000
     29 H11        -13.6870   -38.5920    -0.4610 ha         1 PQX       0.103000
     30 H12        -10.5230   -35.8210    -1.2740 ha         1 PQX       0.153000
     31 H13         -7.0140   -33.3240    -0.4870 h1         1 PQX       0.013950
     32 H14         -7.8740   -33.7130    -1.9790 h1         1 PQX       0.013950
     33 H15         -8.2410   -31.3720    -1.3130 hc         1 PQX       0.048200
     34 H16         -9.7530   -32.2800    -1.3670 hc         1 PQX       0.048200
     35 H17         -6.8600   -37.4190     1.3910 ha         1 PQX       0.107000
     36 H18        -10.0800   -40.1250     2.1930 ha         1 PQX       0.103000
     37 H19        -12.8220   -36.5840    -1.6450 ha         1 PQX       0.113000
     38 H20        -10.7670   -33.1470     0.8650 hc         1 PQX       0.048200
     39 H21         -9.9230   -32.8030     2.3710 hc         1 PQX       0.048200
     40 O1          -9.2870   -29.4420     0.9790 o          1 PQX      -0.737500
     41 H9          -7.7470   -39.3920     2.5780 ha         1 PQX       0.103000
@<TRIPOS>BOND
     1     1     2 1   
     2     1    20 1   
     3     1    40 1   
     4     2    12 1   
     5     2    18 1   
     6     2    21 1   
     7     3    18 1   
     8     3    19 1   
     9     3    22 1   
    10     3    23 1   
    11     4     5 1   
    12     4    13 1   
    13     4    19 1   
    14     4    24 1   
    15     5    25 1   
    16     5    26 1   
    17     5    27 1   
    18     6    14 ar  
    19     6    15 ar  
    20     6    41 1   
    21     7    10 ar  
    22     7    13 ar  
    23     7    16 ar  
    24     8     9 ar  
    25     8    16 ar  
    26     8    28 1   
    27     9    17 ar  
    28     9    29 1   
    29    10    17 ar  
    30    10    30 1   
    31    11    12 1   
    32    11    19 1   
    33    11    31 1   
    34    11    32 1   
    35    12    33 1   
    36    12    34 1   
    37    13    14 ar  
    38    14    35 1   
    39    15    16 ar  
    40    15    36 1   
    41    17    37 1   
    42    18    38 1   
    43    18    39 1   
@<TRIPOS>SUBSTRUCTURE
     1 PQX         1 TEMP              0 ****  ****    0 ROOT
