@<TRIPOS>MOLECULE
PQX
   41    43     1     0     0
SMALL
No Charge or Current Charge


@<TRIPOS>ATOM
      1 C7          -9.9140   -30.4330     0.7750 c          1 PQX       0.711000
      2 C8          -9.1010   -31.7420     0.6330 c6         1 PQX      -0.184700
      3 C10         -8.9590   -34.2460     1.1460 c6         1 PQX       0.163300
      4 C13         -7.9850   -35.8750    -0.4600 c3         1 PQX       0.222800
      5 C15         -7.7100   -36.2810    -1.9320 c3         1 PQX      -0.084100
      6 C17         -8.3820   -38.8610     1.9150 ca         1 PQX      -0.108000
      7 C20        -10.0110   -37.4550     0.0800 ca         1 PQX      -0.019000
      8 C21        -11.8550   -38.9860     0.6190 ca         1 PQX      -0.119000
      9 C22        -12.6940   -38.3100    -0.2770 ca         1 PQX      -0.104000
     10 C24        -10.8780   -36.7820    -0.8160 ca         1 PQX      -0.068000
     11 C11         -7.9940   -33.4210    -0.9570 c6         1 PQX       0.163300
     12 C12         -8.7970   -32.0990    -0.8450 c6         1 PQX      -0.056400
     13 C14         -8.6570   -37.0520     0.2830 ca         1 PQX      -0.040300
     14 C16         -7.8630   -37.7690     1.2060 ca         1 PQX      -0.128000
     15 C18         -9.7080   -39.2600     1.7120 ca         1 PQX      -0.112000
     16 C19        -10.5230   -38.5650     0.8020 ca         1 PQX      -0.040000
     17 C23        -12.2060   -37.2080    -0.9920 ca         1 PQX      -0.125000
     18 C9          -9.7930   -32.9510     1.3160 c6         1 PQX      -0.056400
     19 N4          -8.6870   -34.5650    -0.2890 n3         1 PQX      -0.717600
     20 O3         -11.0310   -30.3810     0.2800 o          1 PQX      -0.737500
     21 H2          -8.1390   -31.5800     1.1410 hc         1 PQX       0.028700
     22 H3          -9.5130   -35.0630     1.6300 h1         1 PQX       0.013950
     23 H4          -8.0100   -34.1350     1.6920 h1         1 PQX       0.013950
     24 H5          -6.9900   -35.7540    -0.0100 h1         1 PQX       0.013700
     25 H6          -7.2920   -37.2940    -1.9720 hc         1 PQX       0.035367
     26 H7          -8.6230   -36.2670    -2.5360 hc         1 PQX       0.035367
     27 H8          -6.9770   -35.6130    -2.3980 hc         1 PQX       0.035367
     28 H10        -12.2410   -39.8380     1.1740 ha         1 PQX       0.100000
     29 H11        -13.7230   -38.6380    -0.4150 ha         1 PQX       0.103000
     30 H12        -10.5440   -35.9190    -1.3820 ha         1 PQX       0.153000
     31 H13         -6.9970   -33.2750    -0.5140 h1         1 PQX       0.013950
     32 H14         -7.8480   -33.6240    -2.0260 h1         1 PQX       0.013950
     33 H15         -8.2310   -31.2850    -1.3190 hc         1 PQX       0.048200
     34 H16         -9.7340   -32.1980    -1.4100 hc         1 PQX       0.048200
     35 H17         -6.8290   -37.4790     1.3750 ha         1 PQX       0.107000
     36 H18        -10.1030   -40.1100     2.2650 ha         1 PQX       0.103000
     37 H19        -12.8560   -36.6790    -1.6850 ha         1 PQX       0.113000
     38 H20        -10.7920   -33.1080     0.8860 hc         1 PQX       0.048200
     39 H21         -9.9400   -32.7460     2.3840 hc         1 PQX       0.048200
     40 O1          -9.4000   -29.5030     1.3790 o          1 PQX      -0.737500
     41 H9          -7.7540   -39.4010     2.6200 ha         1 PQX       0.103000
@<TRIPOS>BOND
     1     1     2 1   
     2     1    20 1   
     3     1    40 1   
     4     2    12 1   
     5     2    18 1   
     6     2    21 1   
     7     3    18 1   
     8     3    19 1   
     9     3    22 1   
    10     3    23 1   
    11     4     5 1   
    12     4    13 1   
    13     4    19 1   
    14     4    24 1   
    15     5    25 1   
    16     5    26 1   
    17     5    27 1   
    18     6    14 ar  
    19     6    15 ar  
    20     6    41 1   
    21     7    10 ar  
    22     7    13 ar  
    23     7    16 ar  
    24     8     9 ar  
    25     8    16 ar  
    26     8    28 1   
    27     9    17 ar  
    28     9    29 1   
    29    10    17 ar  
    30    10    30 1   
    31    11    12 1   
    32    11    19 1   
    33    11    31 1   
    34    11    32 1   
    35    12    33 1   
    36    12    34 1   
    37    13    14 ar  
    38    14    35 1   
    39    15    16 ar  
    40    15    36 1   
    41    17    37 1   
    42    18    38 1   
    43    18    39 1   
@<TRIPOS>SUBSTRUCTURE
     1 PQX         1 TEMP              0 ****  ****    0 ROOT
