@<TRIPOS>MOLECULE
PQY
   47    47     1     0     0
SMALL
abcg2


@<TRIPOS>ATOM
      1 N1          -1.4490     1.2830     0.0730 n3         1 PQY      -0.724600
      2 N3          -4.8770    -0.0650     0.5880 ns         1 PQY      -0.508400
      3 C4           0.7750     2.4020     0.4110 c3         1 PQY       0.183300
      4 C5          -0.6290     2.1190     0.9280 c3         1 PQY       0.183300
      5 C7           3.4820    -0.1630     0.1420 c3         1 PQY       0.095500
      6 C8          -2.8270     1.2610     0.5140 c3         1 PQY       0.159800
      7 C10         -5.8520    -0.7160    -0.0650 c          1 PQY       0.523300
      8 C13          7.1850    -0.5690     0.5680 ce         1 PQY       0.293200
      9 C1          -1.2940     1.5200    -1.3520 c3         1 PQY       0.177800
     10 C11         -7.1790    -0.5840     0.6010 ce         1 PQY       0.293200
     11 C12          5.8630    -0.7650    -0.0920 c          1 PQY       0.523300
     12 C2          -0.1530     0.6990    -1.9400 c3         1 PQY      -0.073400
     13 C3           1.2540     1.1270    -1.5550 c3         1 PQY       0.177800
     14 C9          -3.4890    -0.0720     0.1820 c3         1 PQY       0.095500
     15 N2           1.4760     1.2420    -0.1190 n3         1 PQY      -0.724600
     16 N4           4.8640    -0.1490     0.5590 ns         1 PQY      -0.508400
     17 N5           8.1960    -1.0990     0.0190 n2         1 PQY      -0.254700
     18 N6          -8.1510    -1.2240     0.1010 n2         1 PQY      -0.254700
     19 O1          -5.6890    -1.3490    -1.0960 o          1 PQY      -0.567100
     20 O2           5.7260    -1.4150    -1.1170 o          1 PQY      -0.567100
     21 O3           9.3460    -0.8640     0.6830 oh         1 PQY      -0.511000
     22 O4          -9.3060    -1.0430     0.7720 oh         1 PQY      -0.511000
     23 H2          -5.0970     0.3630     1.4740 hn         1 PQY       0.310500
     24 H3           0.7480     3.2130    -0.3330 h1         1 PQY       0.029450
     25 H4           1.3300     2.8040     1.2600 h1         1 PQY       0.029450
     26 H5          -1.0920     3.1020     1.1150 h1         1 PQY       0.029450
     27 H6          -0.5520     1.6260     1.9030 h1         1 PQY       0.029450
     28 H7           3.0180     1.6200     1.2180 h1         1 PQY       0.030950
     29 H8           3.4760     1.9120    -0.4560 h1         1 PQY       0.030950
     30 H9           2.8960    -0.8240     0.7860 h1         1 PQY       0.067200
     31 H10          3.4390    -0.5690    -0.8670 h1         1 PQY       0.067200
     32 H11         -2.8460     1.3970     1.5990 h1         1 PQY       0.030950
     33 H12         -3.4200     2.0850     0.0880 h1         1 PQY       0.030950
     34 H13          7.2530     0.0190     1.4830 h4         1 PQY       0.008300
     35 H15         -2.2130     1.2090    -1.8530 h1         1 PQY       0.030700
     36 H16         -1.1770     2.5890    -1.5910 h1         1 PQY       0.030700
     37 H17         -7.2810     0.0430     1.4860 h4         1 PQY       0.008300
     38 H19         -0.3090    -0.3430    -1.6500 hc         1 PQY       0.053700
     39 H20         -0.2160     0.7370    -3.0320 hc         1 PQY       0.053700
     40 H21          1.9440     0.3910    -1.9680 h1         1 PQY       0.030700
     41 H22          1.4940     2.0850    -2.0500 h1         1 PQY       0.030700
     42 H23         -2.9430    -0.8790     0.6790 h1         1 PQY       0.067200
     43 H24         -3.4460    -0.2680    -0.8880 h1         1 PQY       0.067200
     44 H26          5.0800     0.3370     1.4150 hn         1 PQY       0.310500
     45 H29         10.0270    -1.2980     0.1560 ho         1 PQY       0.480000
     46 H30         -9.9480    -1.5930     0.3100 ho         1 PQY       0.480000
     47 C6           2.8930     1.2440     0.1990 c3         1 PQY       0.159800
@<TRIPOS>BOND
     1     1     4 1   
     2     1     6 1   
     3     1     9 1   
     4     2     7 1   
     5     2    14 1   
     6     2    23 1   
     7     3     4 1   
     8     3    15 1   
     9     3    24 1   
    10     3    25 1   
    11     4    26 1   
    12     4    27 1   
    13     5    16 1   
    14     5    30 1   
    15     5    31 1   
    16     5    47 1   
    17     6    14 1   
    18     6    32 1   
    19     6    33 1   
    20     7    10 1   
    21     7    19 2   
    22     8    11 1   
    23     8    17 2   
    24     8    34 1   
    25     9    12 1   
    26     9    35 1   
    27     9    36 1   
    28    10    18 2   
    29    10    37 1   
    30    11    16 1   
    31    11    20 2   
    32    12    13 1   
    33    12    38 1   
    34    12    39 1   
    35    13    15 1   
    36    13    40 1   
    37    13    41 1   
    38    14    42 1   
    39    14    43 1   
    40    15    47 1   
    41    16    44 1   
    42    17    21 1   
    43    18    22 1   
    44    21    45 1   
    45    22    46 1   
    46    28    47 1   
    47    29    47 1   
@<TRIPOS>SUBSTRUCTURE
     1 PQY         1 TEMP              0 ****  ****    0 ROOT
