@<TRIPOS>MOLECULE
PQY
   47    47     1     0     0
SMALL
No Charge or Current Charge


@<TRIPOS>ATOM
      1 N1          -1.5350     1.0160     0.0020 n3         1 PQY      -0.724600
      2 N3          -5.3280     0.3880     0.2790 ns         1 PQY      -0.508400
      3 C4           0.8960     1.9100     0.5450 c3         1 PQY       0.183300
      4 C5          -0.6280     1.8130     0.8800 c3         1 PQY       0.183300
      5 C7           3.8310    -0.5650     0.0360 c3         1 PQY       0.095500
      6 C8          -2.9650     1.2400     0.3470 c3         1 PQY       0.159800
      7 C10         -6.4210    -0.3500    -0.1460 c          1 PQY       0.523300
      8 C13          7.5750     0.0780     0.6820 ce         1 PQY       0.293200
      9 C1          -1.2220     1.1180    -1.4420 c3         1 PQY       0.177800
     10 C11         -7.7310     0.0180     0.5110 ce         1 PQY       0.293200
     11 C12          6.2400     0.2160    -0.0140 c          1 PQY       0.523300
     12 C2          -0.1040     0.1470    -1.8640 c3         1 PQY      -0.073400
     13 C3           1.3330     0.5310    -1.4610 c3         1 PQY       0.177800
     14 C9          -3.9530     0.1770    -0.1980 c3         1 PQY       0.095500
     15 N2           1.5930     0.7070    -0.0040 n3         1 PQY      -0.724600
     16 N4           5.2120    -0.5280     0.5450 ns         1 PQY      -0.508400
     17 N5           8.6820     0.2800     0.0230 n2         1 PQY      -0.254700
     18 N6          -8.6900    -0.8620     0.6000 n2         1 PQY      -0.254700
     19 O1          -6.2840    -1.2710    -0.9480 o          1 PQY      -0.567100
     20 O2           6.0620     0.8700    -1.0380 o          1 PQY      -0.567100
     21 O3           9.8530    -0.0180     0.7440 oh         1 PQY      -0.511000
     22 O4          -9.8000    -0.4430     1.3550 oh         1 PQY      -0.511000
     23 H2          -5.4980     1.1180     0.9640 hn         1 PQY       0.310500
     24 H3           1.0310     2.7470    -0.1540 h1         1 PQY       0.029450
     25 H4           1.3830     2.2270     1.4770 h1         1 PQY       0.029450
     26 H5          -0.9990     2.8450     0.9410 h1         1 PQY       0.029450
     27 H6          -0.7030     1.4040     1.8960 h1         1 PQY       0.029450
     28 H7           3.1790     0.9720     1.3780 h1         1 PQY       0.030950
     29 H8           3.5270     1.5680    -0.2450 h1         1 PQY       0.030950
     30 H9           3.3060    -1.3980     0.5210 h1         1 PQY       0.067200
     31 H10          3.8640    -0.7670    -1.0410 h1         1 PQY       0.067200
     32 H11         -3.0720     1.2450     1.4410 h1         1 PQY       0.030950
     33 H12         -3.2820     2.2310    -0.0080 h1         1 PQY       0.030950
     34 H13          7.5810    -0.4450     1.6420 h4         1 PQY       0.008300
     35 H15         -2.1010     0.8590    -2.0430 h1         1 PQY       0.030700
     36 H16         -0.9510     2.1470    -1.7160 h1         1 PQY       0.030700
     37 H17         -7.7420     0.9220     1.1260 h4         1 PQY       0.008300
     38 H19         -0.3310    -0.8510    -1.4700 hc         1 PQY       0.053700
     39 H20         -0.1290     0.0570    -2.9560 hc         1 PQY       0.053700
     40 H21          1.9750    -0.2610    -1.8630 h1         1 PQY       0.030700
     41 H22          1.6070     1.4500    -1.9960 h1         1 PQY       0.030700
     42 H23         -3.6180    -0.8180     0.1220 h1         1 PQY       0.067200
     43 H24         -3.9600     0.1980    -1.2950 h1         1 PQY       0.067200
     44 H26          5.4330    -1.0710     1.3740 hn         1 PQY       0.310500
     45 H29         10.5930     0.1840     0.1200 ho         1 PQY       0.480000
     46 H30        -10.4290    -1.2050     1.3280 ho         1 PQY       0.480000
     47 C6           3.0500     0.7490     0.3100 c3         1 PQY       0.159800
@<TRIPOS>BOND
     1     1     4 1   
     2     1     6 1   
     3     1     9 1   
     4     2     7 1   
     5     2    14 1   
     6     2    23 1   
     7     3     4 1   
     8     3    15 1   
     9     3    24 1   
    10     3    25 1   
    11     4    26 1   
    12     4    27 1   
    13     5    16 1   
    14     5    30 1   
    15     5    31 1   
    16     5    47 1   
    17     6    14 1   
    18     6    32 1   
    19     6    33 1   
    20     7    10 1   
    21     7    19 2   
    22     8    11 1   
    23     8    17 2   
    24     8    34 1   
    25     9    12 1   
    26     9    35 1   
    27     9    36 1   
    28    10    18 2   
    29    10    37 1   
    30    11    16 1   
    31    11    20 2   
    32    12    13 1   
    33    12    38 1   
    34    12    39 1   
    35    13    15 1   
    36    13    40 1   
    37    13    41 1   
    38    14    42 1   
    39    14    43 1   
    40    15    47 1   
    41    16    44 1   
    42    17    21 1   
    43    18    22 1   
    44    21    45 1   
    45    22    46 1   
    46    28    47 1   
    47    29    47 1   
@<TRIPOS>SUBSTRUCTURE
     1 PQY         1 TEMP              0 ****  ****    0 ROOT
