@<TRIPOS>MOLECULE
PQZ
   28    29     1     0     0
SMALL
abcg2


@<TRIPOS>ATOM
      1 C1          27.9980    -4.4740    -4.9220 cc         1 PQZ      -0.234300
      2 C2          26.8000    -3.8160    -4.9300 cd         1 PQZ      -0.128000
      3 C3          25.8230    -4.6630    -5.5270 cd         1 PQZ      -0.174600
      4 C4          26.4780    -5.8320    -5.8710 cc         1 PQZ      -0.147300
      5 C6          29.6930    -6.3820    -6.9320 cx         1 PQZ      -0.128700
      6 C7          30.4570    -7.4970    -7.5750 cx         1 PQZ      -0.135400
      7 C8          29.3000    -6.8670    -8.2930 cx         1 PQZ      -0.135400
      8 C9          25.9640    -7.0860    -6.4900 c3         1 PQZ      -0.022800
      9 C10         24.3770    -4.2900    -5.7040 c          1 PQZ       0.732600
     10 N           27.7920    -5.7040    -5.5000 na         1 PQZ      -0.000000
     11 C           29.3140    -4.0400    -4.3790 c3         1 PQZ      -0.000800
     12 O           23.5950    -5.1360    -6.1940 o          1 PQZ      -0.737000
     13 O1          24.0640    -3.1370    -5.3370 o          1 PQZ      -0.737000
     14 H1          26.6330    -2.8240    -4.5380 ha         1 PQZ       0.130000
     15 H2          28.3820    -7.6660    -5.8280 h1         1 PQZ       0.043700
     16 H3          29.4650    -6.7280    -4.8320 h1         1 PQZ       0.043700
     17 H4          30.1980    -5.4230    -6.9010 hc         1 PQZ       0.081700
     18 H5          30.3230    -8.4980    -7.1820 hc         1 PQZ       0.066450
     19 H6          31.4590    -7.2920    -7.9290 hc         1 PQZ       0.066450
     20 H7          29.5070    -6.2290    -9.1420 hc         1 PQZ       0.066450
     21 H8          28.3930    -7.4510    -8.3860 hc         1 PQZ       0.066450
     22 H9          26.0880    -7.9500    -5.8320 hc         1 PQZ       0.038033
     23 H10         24.9050    -6.9680    -6.6920 hc         1 PQZ       0.038033
     24 H11         26.4660    -7.3270    -7.4290 hc         1 PQZ       0.038033
     25 H12         30.0860    -3.9400    -5.1460 hc         1 PQZ       0.020700
     26 H13         29.2040    -3.0660    -3.9060 hc         1 PQZ       0.020700
     27 H14         29.7030    -4.7270    -3.6230 hc         1 PQZ       0.020700
     28 C5          28.8400    -6.6810    -5.7250 c3         1 PQZ       0.106600
@<TRIPOS>BOND
     1     1     2 2   
     2     1    10 1   
     3     1    11 1   
     4     2     3 1   
     5     2    14 1   
     6     3     4 2   
     7     3     9 1   
     8     4     8 1   
     9     4    10 1   
    10     5     6 1   
    11     5     7 1   
    12     5    17 1   
    13     5    28 1   
    14     6     7 1   
    15     6    18 1   
    16     6    19 1   
    17     7    20 1   
    18     7    21 1   
    19     8    22 1   
    20     8    23 1   
    21     8    24 1   
    22     9    12 1   
    23     9    13 1   
    24    10    28 1   
    25    11    25 1   
    26    11    26 1   
    27    11    27 1   
    28    15    28 1   
    29    16    28 1   
@<TRIPOS>SUBSTRUCTURE
     1 PQZ         1 TEMP              0 ****  ****    0 ROOT
