@<TRIPOS>MOLECULE
PQZ
   28    29     1     0     0
SMALL
No Charge or Current Charge


@<TRIPOS>ATOM
      1 C1          27.9930    -4.4400    -4.8240 cc         1 PQZ      -0.234300
      2 C2          26.7820    -3.8140    -4.8420 cd         1 PQZ      -0.128000
      3 C3          25.8310    -4.6160    -5.5110 cd         1 PQZ      -0.174600
      4 C4          26.4690    -5.7770    -5.9140 cc         1 PQZ      -0.147300
      5 C6          29.7010    -6.4680    -6.9910 cx         1 PQZ      -0.128700
      6 C7          30.5430    -7.5970    -7.5390 cx         1 PQZ      -0.135400
      7 C8          29.3110    -7.1420    -8.2870 cx         1 PQZ      -0.135400
      8 C9          25.9000    -6.9610    -6.6690 c3         1 PQZ      -0.022800
      9 C10         24.3880    -4.2560    -5.7380 c          1 PQZ       0.732600
     10 N           27.8080    -5.6580    -5.4890 na         1 PQZ      -0.000000
     11 C           29.2910    -3.9550    -4.2300 c3         1 PQZ      -0.000800
     12 O           23.6510    -5.0220    -6.3400 o          1 PQZ      -0.737000
     13 O1          23.9930    -3.1820    -5.3060 o          1 PQZ      -0.737000
     14 H1          26.5810    -2.8380    -4.4090 ha         1 PQZ       0.130000
     15 H2          28.4560    -7.6580    -5.6900 h1         1 PQZ       0.043700
     16 H3          29.5730    -6.5990    -4.8620 h1         1 PQZ       0.043700
     17 H4          30.1230    -5.4680    -7.0690 hc         1 PQZ       0.081700
     18 H5          30.5000    -8.5590    -7.0330 hc         1 PQZ       0.066450
     19 H6          31.5130    -7.3470    -7.9600 hc         1 PQZ       0.066450
     20 H7          29.4550    -6.5850    -9.2090 hc         1 PQZ       0.066450
     21 H8          28.4510    -7.8070    -8.2880 hc         1 PQZ       0.066450
     22 H9          26.6070    -7.7890    -6.7660 hc         1 PQZ       0.038033
     23 H10         25.0150    -7.3590    -6.1580 hc         1 PQZ       0.038033
     24 H11         25.6010    -6.6650    -7.6820 hc         1 PQZ       0.038033
     25 H12         30.0860    -3.9340    -4.9840 hc         1 PQZ       0.020700
     26 H13         29.1840    -2.9410    -3.8280 hc         1 PQZ       0.020700
     27 H14         29.6150    -4.6080    -3.4110 hc         1 PQZ       0.020700
     28 C5          28.8840    -6.6500    -5.7140 c3         1 PQZ       0.106600
@<TRIPOS>BOND
     1     1     2 2   
     2     1    10 1   
     3     1    11 1   
     4     2     3 1   
     5     2    14 1   
     6     3     4 2   
     7     3     9 1   
     8     4     8 1   
     9     4    10 1   
    10     5     6 1   
    11     5     7 1   
    12     5    17 1   
    13     5    28 1   
    14     6     7 1   
    15     6    18 1   
    16     6    19 1   
    17     7    20 1   
    18     7    21 1   
    19     8    22 1   
    20     8    23 1   
    21     8    24 1   
    22     9    12 1   
    23     9    13 1   
    24    10    28 1   
    25    11    25 1   
    26    11    26 1   
    27    11    27 1   
    28    15    28 1   
    29    16    28 1   
@<TRIPOS>SUBSTRUCTURE
     1 PQZ         1 TEMP              0 ****  ****    0 ROOT
