@<TRIPOS>MOLECULE
PR0
   27    27     1     0     0
SMALL
bcc


@<TRIPOS>ATOM
      1 N           -1.0970     1.7010    -0.4510 n8         1 PR0      -0.881800
      2 CA          -1.3350     0.2920    -0.2000 c3         1 PR0       0.134500
      3 C           -2.7920    -0.0510     0.1700 c3         1 PR0       0.103100
      4 OXT         -2.9590    -1.4450     0.3600 oh         1 PR0      -0.587800
      5 CB          -0.3650    -0.1940     0.8840 c3         1 PR0      -0.022100
      6 CG           1.0680    -0.1480     0.4390 ca         1 PR0      -0.066300
      7 CD1          1.8750     0.9570     0.6950 ca         1 PR0      -0.117000
      8 CD2          1.6150    -1.2140    -0.2740 ca         1 PR0      -0.117000
      9 CE1          3.1930     0.9950     0.2580 ca         1 PR0      -0.130000
     10 CE2          2.9300    -1.1800    -0.7190 ca         1 PR0      -0.130000
     11 CZ           3.7250    -0.0730    -0.4530 ca         1 PR0      -0.130000
     12 CM          -3.7900     0.4810    -0.8510 c3         1 PR0      -0.131100
     13 H           -1.6530     2.0240    -1.2320 hn         1 PR0       0.340300
     14 H2          -1.3850     2.2500     0.3510 hn         1 PR0       0.340300
     15 HA          -1.1020    -0.2430    -1.1310 h1         1 PR0       0.058700
     16 HC          -3.0130     0.4010     1.1440 h1         1 PR0       0.069700
     17 HOR         -2.7590    -1.8830    -0.4750 ho         1 PR0       0.400000
     18 HB2         -0.5000     0.4270     1.7770 hc         1 PR0       0.053700
     19 HB3         -0.6250    -1.2140     1.1690 hc         1 PR0       0.053700
     20 HD1          1.4690     1.7960     1.2470 ha         1 PR0       0.126000
     21 HD2          1.0040    -2.0860    -0.4800 ha         1 PR0       0.126000
     22 HE1          3.8070     1.8610     0.4740 ha         1 PR0       0.127000
     23 HE2          3.3350    -2.0210    -1.2680 ha         1 PR0       0.127000
     24 HZ           4.7530    -0.0440    -0.7930 ha         1 PR0       0.127000
     25 HM1         -3.5590     0.1180    -1.8560 hc         1 PR0       0.042700
     26 HM2         -4.8000     0.1580    -0.5980 hc         1 PR0       0.042700
     27 HM3         -3.7980     1.5700    -0.8820 hc         1 PR0       0.042700
@<TRIPOS>BOND
     1     1     2 1   
     2     1    13 1   
     3     1    14 1   
     4     2     3 1   
     5     2     5 1   
     6     2    15 1   
     7     3     4 1   
     8     3    12 1   
     9     3    16 1   
    10     4    17 1   
    11     5     6 1   
    12     5    18 1   
    13     5    19 1   
    14     6     7 ar  
    15     6     8 ar  
    16     7     9 ar  
    17     7    20 1   
    18     8    10 ar  
    19     8    21 1   
    20     9    11 ar  
    21     9    22 1   
    22    10    11 ar  
    23    10    23 1   
    24    11    24 1   
    25    12    25 1   
    26    12    26 1   
    27    12    27 1   
@<TRIPOS>SUBSTRUCTURE
     1 PR0         1 TEMP              0 ****  ****    0 ROOT
