@<TRIPOS>MOLECULE
PR0
   27    27     1     0     0
SMALL
No Charge or Current Charge


@<TRIPOS>ATOM
      1 N           -1.0940     1.5830    -0.7340 n8         1 PR0      -0.881800
      2 CA          -1.3550     0.2090    -0.2370 c3         1 PR0       0.134500
      3 C           -2.8460     0.0400     0.2220 c3         1 PR0       0.103100
      4 OXT         -3.0960    -1.3100     0.6350 oh         1 PR0      -0.587800
      5 CB          -0.3340    -0.1600     0.8780 c3         1 PR0      -0.022100
      6 CG           1.1250    -0.1070     0.4260 ca         1 PR0      -0.066300
      7 CD1          1.9980     0.8770     0.9340 ca         1 PR0      -0.117000
      8 CD2          1.6190    -1.0590    -0.4890 ca         1 PR0      -0.117000
      9 CE1          3.3430     0.9130     0.5260 ca         1 PR0      -0.130000
     10 CE2          2.9640    -1.0230    -0.8970 ca         1 PR0      -0.130000
     11 CZ           3.8260    -0.0360    -0.3900 ca         1 PR0      -0.130000
     12 CM          -3.8780     0.3900    -0.8760 c3         1 PR0      -0.131100
     13 H           -1.8020     1.8270    -1.4330 hn         1 PR0       0.340300
     14 H2          -1.2450     2.2520     0.0270 hn         1 PR0       0.340300
     15 HA          -1.1910    -0.4740    -1.0820 h1         1 PR0       0.058700
     16 HC          -3.0170     0.7170     1.0720 h1         1 PR0       0.069700
     17 HOR         -3.1170    -1.8640    -0.1740 ho         1 PR0       0.400000
     18 HB2         -0.4930     0.4990     1.7400 hc         1 PR0       0.053700
     19 HB3         -0.5460    -1.1740     1.2390 hc         1 PR0       0.053700
     20 HD1          1.6330     1.6170     1.6430 ha         1 PR0       0.126000
     21 HD2          0.9590    -1.8290    -0.8830 ha         1 PR0       0.126000
     22 HE1          4.0100     1.6770     0.9200 ha         1 PR0       0.127000
     23 HE2          3.3370    -1.7610    -1.6050 ha         1 PR0       0.127000
     24 HZ           4.8680    -0.0080    -0.7060 ha         1 PR0       0.127000
     25 HM1         -3.7090    -0.2080    -1.7800 hc         1 PR0       0.042700
     26 HM2         -4.8970     0.1960    -0.5210 hc         1 PR0       0.042700
     27 HM3         -3.8210     1.4500    -1.1480 hc         1 PR0       0.042700
@<TRIPOS>BOND
     1     1     2 1   
     2     1    13 1   
     3     1    14 1   
     4     2     3 1   
     5     2     5 1   
     6     2    15 1   
     7     3     4 1   
     8     3    12 1   
     9     3    16 1   
    10     4    17 1   
    11     5     6 1   
    12     5    18 1   
    13     5    19 1   
    14     6     7 ar  
    15     6     8 ar  
    16     7     9 ar  
    17     7    20 1   
    18     8    10 ar  
    19     8    21 1   
    20     9    11 ar  
    21     9    22 1   
    22    10    11 ar  
    23    10    23 1   
    24    11    24 1   
    25    12    25 1   
    26    12    26 1   
    27    12    27 1   
@<TRIPOS>SUBSTRUCTURE
     1 PR0         1 TEMP              0 ****  ****    0 ROOT
