@<TRIPOS>MOLECULE
PR1
   49    52     1     0     0
SMALL
No Charge or Current Charge


@<TRIPOS>ATOM
      1 C1          13.9620    -4.1080    25.2400 ca         1 PR1      -0.042000
      2 C2          14.4850    -4.4610    23.9860 ca         1 PR1      -0.151000
      3 C3          13.6370    -4.8850    22.9540 ca         1 PR1       0.161100
      4 C4          12.2450    -4.9630    23.1700 ca         1 PR1      -0.207300
      5 C5          11.7250    -4.6070    24.4320 ca         1 PR1      -0.038000
      6 C6          12.5710    -4.1620    25.4740 ca         1 PR1      -0.229900
      7 C10         12.0140    -3.8350    26.8190 ce         1 PR1       0.662800
      8 N11         10.9190    -4.3000    27.2540 n2         1 PR1      -0.838100
      9 N12         12.6210    -2.8690    27.5270 nv         1 PR1      -1.039200
     10 C13         11.2750    -5.4230    22.0810 c3         1 PR1       0.158300
     11 O44         14.1880    -5.2230    21.7550 oh         1 PR1      -0.537100
     12 C16         12.9270   -12.5010    24.3820 ca         1 PR1      -0.206000
     13 C17         13.8900   -12.7360    25.3720 ca         1 PR1      -0.048000
     14 C18         15.2030   -12.9820    24.9310 ca         1 PR1      -0.139000
     15 C19         15.4790   -12.9800    23.5460 ca         1 PR1       0.335900
     16 N20         14.5320   -12.7500    22.6010 nb         1 PR1      -0.621000
     17 C21         13.2810   -12.5180    23.0460 ca         1 PR1       0.333800
     18 C25         12.1700   -12.2510    22.1720 cc         1 PR1      -0.138800
     19 C26         10.9960   -12.0280    22.8880 cd         1 PR1      -0.312500
     20 S27         11.2040   -12.1640    24.6550 ss         1 PR1       0.188400
     21 N28         11.2040    -6.8910    21.9570 n          1 PR1      -0.426800
     22 C29         10.4410    -7.6480    22.8530 c          1 PR1       0.561000
     23 C30         10.6220    -9.1230    22.3930 c5         1 PR1       0.129500
     24 C31         10.9850    -8.9750    20.8860 c5         1 PR1      -0.120400
     25 C32         11.8340    -7.6700    20.8750 c5         1 PR1       0.104000
     26 N37          9.3990    -9.9980    22.5140 n7         1 PR1      -0.862300
     27 S38          9.4060   -11.6400    22.1920 sy         1 PR1       1.216200
     28 O39          8.3520   -12.2100    23.0340 o          1 PR1      -0.527000
     29 O40          9.4320   -11.7780    20.7350 o          1 PR1      -0.527000
     30 O41          9.7610    -7.1950    23.7660 o          1 PR1      -0.513000
     31 H11         14.6470    -3.8050    26.0300 ha         1 PR1       0.128000
     32 H21         15.5570    -4.4130    23.8160 ha         1 PR1       0.135000
     33 H51         10.6500    -4.6650    24.5940 ha         1 PR1       0.130000
     34 H111        10.6270    -5.0540    26.6190 hn         1 PR1       0.386400
     35 H121        12.0310    -2.4650    28.2440 hn         1 PR1       0.472500
     36 H122        13.1690    -2.2120    26.9860 hn         1 PR1       0.472500
     37 H131        10.2690    -5.0390    22.3000 h1         1 PR1       0.066200
     38 H132        11.5630    -4.9900    21.1150 h1         1 PR1       0.066200
     39 H441        13.4780    -5.5660    21.1780 ho         1 PR1       0.466000
     40 H181        16.0010   -13.1730    25.6420 ha         1 PR1       0.129000
     41 H191        16.4890   -13.1680    23.1830 h4         1 PR1       0.027100
     42 H251        12.2430   -12.2220    21.0890 ha         1 PR1       0.229000
     43 H301        11.4750    -9.5080    22.9700 h1         1 PR1       0.106700
     44 H311        11.5380    -9.8310    20.4850 hc         1 PR1       0.065700
     45 H312        10.0900    -8.8420    20.2670 hc         1 PR1       0.065700
     46 H321        11.7880    -7.1570    19.9050 h1         1 PR1       0.054200
     47 H322        12.8860    -7.8790    21.1130 h1         1 PR1       0.054200
     48 H371         8.6470    -9.6750    21.9080 hn         1 PR1       0.491000
     49 H171        13.6360   -12.7290    26.4310 ha         1 PR1       0.132000
@<TRIPOS>BOND
     1     1     2 ar  
     2     1     6 ar  
     3     1    31 1   
     4     2     3 ar  
     5     2    32 1   
     6     3     4 ar  
     7     3    11 1   
     8     4     5 ar  
     9     4    10 1   
    10     5     6 ar  
    11     5    33 1   
    12     6     7 1   
    13     7     8 2   
    14     7     9 1   
    15     8    34 1   
    16     9    35 1   
    17     9    36 1   
    18    10    21 1   
    19    10    37 1   
    20    10    38 1   
    21    11    39 1   
    22    12    13 ar  
    23    12    17 ar  
    24    12    20 1   
    25    13    14 ar  
    26    13    49 1   
    27    14    15 ar  
    28    14    40 1   
    29    15    16 ar  
    30    15    41 1   
    31    16    17 ar  
    32    17    18 1   
    33    18    19 2   
    34    18    42 1   
    35    19    20 1   
    36    19    27 1   
    37    21    22 1   
    38    21    25 1   
    39    22    23 1   
    40    22    30 2   
    41    23    24 1   
    42    23    26 1   
    43    23    43 1   
    44    24    25 1   
    45    24    44 1   
    46    24    45 1   
    47    25    46 1   
    48    25    47 1   
    49    26    27 1   
    50    26    48 1   
    51    27    28 2   
    52    27    29 2   
@<TRIPOS>SUBSTRUCTURE
     1 PR1         1 TEMP              0 ****  ****    0 ROOT
