@<TRIPOS>MOLECULE
PR1
   49    52     1     0     0
SMALL
abcg2


@<TRIPOS>ATOM
      1 C1          13.5160    -3.2730    25.2110 ca         1 PR1      -0.042000
      2 C2          14.1590    -3.4100    23.9950 ca         1 PR1      -0.151000
      3 C3          13.5290    -4.0540    22.9290 ca         1 PR1       0.161100
      4 C4          12.2320    -4.5630    23.0840 ca         1 PR1      -0.207300
      5 C5          11.6110    -4.4200    24.3210 ca         1 PR1      -0.038000
      6 C6          12.2270    -3.7860    25.3970 ca         1 PR1      -0.229900
      7 C10         11.5240    -3.6760    26.7060 ce         1 PR1       0.662800
      8 N11         10.6850    -4.5410    27.1620 n2         1 PR1      -0.838100
      9 N12         11.8580    -2.5880    27.4660 nv         1 PR1      -1.039200
     10 C13         11.4920    -5.2830    21.9800 c3         1 PR1       0.158300
     11 O44         14.2480    -4.1460    21.7770 oh         1 PR1      -0.537100
     12 C16         13.0990   -13.0390    23.7970 ca         1 PR1      -0.206000
     13 C17         14.2870   -13.4910    24.3690 ca         1 PR1      -0.048000
     14 C18         15.0990   -14.2800    23.5780 ca         1 PR1      -0.139000
     15 C19         14.7070   -14.5920    22.2670 ca         1 PR1       0.335900
     16 N20         13.5790   -14.1720    21.7100 nb         1 PR1      -0.621000
     17 C21         12.7780   -13.4000    22.4660 ca         1 PR1       0.333800
     18 C25         11.5240   -12.8520    22.0490 cc         1 PR1      -0.138800
     19 C26         10.9430   -12.1240    23.0370 cd         1 PR1      -0.312500
     20 S27         11.8650   -12.0540    24.5140 ss         1 PR1       0.188400
     21 N28         11.4640    -6.7220    22.1800 n          1 PR1      -0.426800
     22 C29         10.3350    -7.4120    22.4300 c          1 PR1       0.561000
     23 C30         10.7430    -8.8620    22.7350 c5         1 PR1       0.129500
     24 C31         12.1840    -8.9580    22.2240 c5         1 PR1      -0.120400
     25 C32         12.6880    -7.5130    22.2920 c5         1 PR1       0.104000
     26 N37          9.7950    -9.8040    22.1570 n7         1 PR1      -0.862300
     27 S38          9.4470   -11.2100    22.9040 sy         1 PR1       1.216200
     28 O39          9.0470   -10.9010    24.2530 o          1 PR1      -0.527000
     29 O40          8.5620   -11.9190    22.0180 o          1 PR1      -0.527000
     30 O41          9.1920    -6.9740    22.4410 o          1 PR1      -0.513000
     31 H11         14.0280    -2.7830    26.0270 ha         1 PR1       0.128000
     32 H21         15.1620    -3.0280    23.8520 ha         1 PR1       0.135000
     33 H51         10.6050    -4.8060    24.4350 ha         1 PR1       0.130000
     34 H111        10.6170    -5.3360    26.5330 hn         1 PR1       0.386400
     35 H121        11.2980    -2.4330    28.2910 hn         1 PR1       0.472500
     36 H122        12.1750    -1.7530    27.0000 hn         1 PR1       0.472500
     37 H131        10.4550    -4.9510    21.9560 h1         1 PR1       0.066200
     38 H132        11.9120    -5.0750    20.9940 h1         1 PR1       0.066200
     39 H441        13.7450    -4.5850    21.0790 ho         1 PR1       0.466000
     40 H181        16.0360   -14.6620    23.9600 ha         1 PR1       0.129000
     41 H191        15.3480   -15.2120    21.6510 h4         1 PR1       0.027100
     42 H251        11.0950   -12.9990    21.0680 ha         1 PR1       0.229000
     43 H301        10.6970    -8.9670    23.8210 h1         1 PR1       0.106700
     44 H311        12.7990    -9.6400    22.8060 hc         1 PR1       0.065700
     45 H312        12.1710    -9.3000    21.1880 hc         1 PR1       0.065700
     46 H321        13.3700    -7.2640    21.4790 h1         1 PR1       0.054200
     47 H322        13.1900    -7.2990    23.2390 h1         1 PR1       0.054200
     48 H371         9.8600    -9.9170    21.1500 hn         1 PR1       0.491000
     49 H171        14.5600   -13.2350    25.3840 ha         1 PR1       0.132000
@<TRIPOS>BOND
     1     1     2 ar  
     2     1     6 ar  
     3     1    31 1   
     4     2     3 ar  
     5     2    32 1   
     6     3     4 ar  
     7     3    11 1   
     8     4     5 ar  
     9     4    10 1   
    10     5     6 ar  
    11     5    33 1   
    12     6     7 1   
    13     7     8 2   
    14     7     9 1   
    15     8    34 1   
    16     9    35 1   
    17     9    36 1   
    18    10    21 1   
    19    10    37 1   
    20    10    38 1   
    21    11    39 1   
    22    12    13 ar  
    23    12    17 ar  
    24    12    20 1   
    25    13    14 ar  
    26    13    49 1   
    27    14    15 ar  
    28    14    40 1   
    29    15    16 ar  
    30    15    41 1   
    31    16    17 ar  
    32    17    18 1   
    33    18    19 2   
    34    18    42 1   
    35    19    20 1   
    36    19    27 1   
    37    21    22 1   
    38    21    25 1   
    39    22    23 1   
    40    22    30 2   
    41    23    24 1   
    42    23    26 1   
    43    23    43 1   
    44    24    25 1   
    45    24    44 1   
    46    24    45 1   
    47    25    46 1   
    48    25    47 1   
    49    26    27 1   
    50    26    48 1   
    51    27    28 2   
    52    27    29 2   
@<TRIPOS>SUBSTRUCTURE
     1 PR1         1 TEMP              0 ****  ****    0 ROOT
