@<TRIPOS>MOLECULE
PR2
   46    50     1     0     0
SMALL
abcg2


@<TRIPOS>ATOM
      1 C16         -1.4310     0.3040     2.8910 ca         1 PR2      -0.203000
      2 C17         -2.3660     1.1180     3.5230 ca         1 PR2      -0.045000
      3 C18         -3.6050     1.2180     2.9280 ca         1 PR2      -0.143000
      4 C19         -3.8680     0.5110     1.7460 ca         1 PR2       0.336900
      5 N20         -2.9930    -0.2710     1.1470 nb         1 PR2      -0.641000
      6 C21         -1.7860    -0.3780     1.7120 ca         1 PR2       0.334800
      7 C25         -0.7090    -1.1670     1.2040 cc         1 PR2      -0.146800
      8 C26          0.3860    -1.0470     1.9850 cd         1 PR2      -0.306500
      9 S27          0.1930    -0.0230     3.3610 ss         1 PR2       0.247400
     10 N28          2.0150     1.8030    -1.2340 n          1 PR2      -0.408800
     11 C29          1.7690     1.4200     0.0310 c          1 PR2       0.525000
     12 C30          2.9510     0.5590     0.4900 c5         1 PR2       0.157500
     13 C31          4.0400     0.9160    -0.5160 c5         1 PR2      -0.097400
     14 C32          3.2660     1.3050    -1.7760 c5         1 PR2       0.094000
     15 N37          2.6040    -0.8550     0.4000 n7         1 PR2      -0.903300
     16 S38          1.9760    -1.7050     1.6480 sy         1 PR2       1.206200
     17 O39          1.8170    -3.0600     1.1590 o          1 PR2      -0.528000
     18 O40          2.7700    -1.4130     2.8280 o          1 PR2      -0.528000
     19 C1           1.0090     2.4430    -2.0540 c3         1 PR2       0.162200
     20 C5          -1.6060    -0.0270    -2.6440 ca         1 PR2      -0.109200
     21 C2          -1.0640     0.0160    -3.9460 ca         1 PR2      -0.077800
     22 C3          -1.6400    -0.8180    -4.9100 ca         1 PR2      -0.114000
     23 C4          -2.6910    -1.6180    -4.5150 ca         1 PR2       0.296900
     24 N5          -3.1980    -1.6490    -3.2710 nb         1 PR2      -0.654000
     25 C6          -2.6720    -0.8700    -2.3440 ca         1 PR2       0.337900
     26 C27         -0.0040     0.9660    -3.9200 cc         1 PR2      -0.231200
     27 C28          0.0580     1.4540    -2.6410 cd         1 PR2      -0.101300
     28 N29         -0.9030     0.8550    -1.8750 na         1 PR2      -0.200700
     29 H171        -2.1320     1.6510     4.4340 ha         1 PR2       0.130000
     30 H181        -4.3750     1.8390     3.3620 ha         1 PR2       0.127000
     31 H191        -4.8420     0.5950     1.2790 h4         1 PR2       0.025100
     32 H251        -0.7680    -1.7680     0.3070 ha         1 PR2       0.225000
     33 H301         3.2360     0.7860     1.5160 h1         1 PR2       0.113700
     34 H311         4.5880     1.7820    -0.1450 hc         1 PR2       0.075700
     35 H312         4.7500     0.1080    -0.6780 hc         1 PR2       0.075700
     36 H321         3.7730     2.0830    -2.3460 h1         1 PR2       0.056700
     37 H322         3.0960     0.4590    -2.4490 h1         1 PR2       0.056700
     38 H371         2.3070    -1.1970    -0.5070 hn         1 PR2       0.500000
     39 H11          0.4770     3.1800    -1.4500 h1         1 PR2       0.074700
     40 H12          1.5090     2.9860    -2.8550 h1         1 PR2       0.074700
     41 H41         -3.1630    -2.2800    -5.2330 h4         1 PR2       0.016100
     42 H61         -3.0950    -0.9100    -1.3440 h4         1 PR2       0.042100
     43 H271         0.6370     1.2580    -4.7360 ha         1 PR2       0.205000
     44 H29         -1.0690     1.0620    -0.9020 hn         1 PR2       0.372000
     45 O41          0.7570     1.6620     0.6640 o          1 PR2      -0.552000
     46 H31         -1.2820    -0.8440    -5.9310 ha         1 PR2       0.122000
@<TRIPOS>BOND
     1     1     2 ar  
     2     1     6 ar  
     3     1     9 1   
     4     2     3 ar  
     5     2    29 1   
     6     3     4 ar  
     7     3    30 1   
     8     4     5 ar  
     9     4    31 1   
    10     5     6 ar  
    11     6     7 1   
    12     7     8 2   
    13     7    32 1   
    14     8     9 1   
    15     8    16 1   
    16    10    11 1   
    17    10    14 1   
    18    10    19 1   
    19    11    12 1   
    20    11    45 2   
    21    12    13 1   
    22    12    15 1   
    23    12    33 1   
    24    13    14 1   
    25    13    34 1   
    26    13    35 1   
    27    14    36 1   
    28    14    37 1   
    29    15    16 1   
    30    15    38 1   
    31    16    17 2   
    32    16    18 2   
    33    19    27 1   
    34    19    39 1   
    35    19    40 1   
    36    20    21 ar  
    37    20    25 ar  
    38    20    28 1   
    39    21    22 ar  
    40    21    26 1   
    41    22    23 ar  
    42    22    46 1   
    43    23    24 ar  
    44    23    41 1   
    45    24    25 ar  
    46    25    42 1   
    47    26    27 2   
    48    26    43 1   
    49    27    28 1   
    50    28    44 1   
@<TRIPOS>SUBSTRUCTURE
     1 PR2         1 TEMP              0 ****  ****    0 ROOT
