@<TRIPOS>MOLECULE
PR2
   46    50     1     0     0
SMALL
No Charge or Current Charge


@<TRIPOS>ATOM
      1 C16         -1.2960     0.7030     2.2700 ca         1 PR2      -0.203000
      2 C17         -2.4330     1.5180     2.1770 ca         1 PR2      -0.045000
      3 C18         -3.5180     1.0060     1.4420 ca         1 PR2      -0.143000
      4 C19         -3.4050    -0.2650     0.8390 ca         1 PR2       0.336900
      5 N20         -2.2860    -1.0290     0.9260 nb         1 PR2      -0.641000
      6 C21         -1.2730    -0.5360     1.6630 ca         1 PR2       0.334800
      7 C25         -0.0160    -1.2160     1.8230 cc         1 PR2      -0.146800
      8 C26          0.9050    -0.4280     2.5140 cd         1 PR2      -0.306500
      9 S27          0.2170     1.1090     3.1050 ss         1 PR2       0.247400
     10 N28          1.7780     1.1830    -0.6850 n          1 PR2      -0.408800
     11 C29          2.5500     1.4970     0.4350 c          1 PR2       0.525000
     12 C30          3.5790     0.3330     0.5490 c5         1 PR2       0.157500
     13 C31          3.7550    -0.0920    -0.9360 c5         1 PR2      -0.097400
     14 C32          2.3190     0.0940    -1.5250 c5         1 PR2       0.094000
     15 N37          3.0820    -0.8990     1.2590 n7         1 PR2      -0.903300
     16 S38          2.5970    -0.8350     2.8540 sy         1 PR2       1.206200
     17 O39          2.7230    -2.2080     3.3470 o          1 PR2      -0.528000
     18 O40          3.2920     0.2950     3.4740 o          1 PR2      -0.528000
     19 C1           0.6060     2.0080    -1.0380 c3         1 PR2       0.162200
     20 C5          -1.8780    -0.0570    -2.8310 ca         1 PR2      -0.109200
     21 C2          -1.4700     0.7190    -3.8730 ca         1 PR2      -0.077800
     22 C3          -2.0180     0.5430    -5.1470 ca         1 PR2      -0.114000
     23 C4          -2.9990    -0.4650    -5.2860 ca         1 PR2       0.296900
     24 N5          -3.4190    -1.2510    -4.2530 nb         1 PR2      -0.654000
     25 C6          -2.8590    -1.0480    -3.0280 ca         1 PR2       0.337900
     26 C27         -0.4800     1.6200    -3.3770 cc         1 PR2      -0.231200
     27 C28         -0.3290     1.3460    -2.0220 cd         1 PR2      -0.101300
     28 N29         -1.2040     0.2880    -1.6670 na         1 PR2      -0.200700
     29 H171        -2.4750     2.4980     2.6470 ha         1 PR2       0.130000
     30 H181        -4.4330     1.5810     1.3300 ha         1 PR2       0.127000
     31 H191        -4.2280    -0.6760     0.2550 h4         1 PR2       0.025100
     32 H251         0.1860    -2.2090     1.4290 ha         1 PR2       0.225000
     33 H301         4.5120     0.7180     0.9850 h1         1 PR2       0.113700
     34 H311         4.4560     0.5840    -1.4390 hc         1 PR2       0.075700
     35 H312         4.1450    -1.1080    -1.0640 hc         1 PR2       0.075700
     36 H321         2.3440     0.3640    -2.5890 h1         1 PR2       0.056700
     37 H322         1.7130    -0.8160    -1.4160 h1         1 PR2       0.056700
     38 H371         2.2020    -1.1790     0.8350 hn         1 PR2       0.500000
     39 H11          0.0440     2.2420    -0.1240 h1         1 PR2       0.074700
     40 H12          0.9590     2.9570    -1.4600 h1         1 PR2       0.074700
     41 H41         -3.4640    -0.6510    -6.2530 h4         1 PR2       0.016100
     42 H61         -3.2010    -1.6810    -2.2100 h4         1 PR2       0.042100
     43 H271         0.0650     2.3760    -3.9380 ha         1 PR2       0.205000
     44 H29         -1.3220    -0.1330    -0.7480 hn         1 PR2       0.372000
     45 O41          2.4050     2.4890     1.1370 o          1 PR2      -0.552000
     46 H31         -1.7090     1.1490    -5.9940 ha         1 PR2       0.122000
@<TRIPOS>BOND
     1     1     2 ar  
     2     1     6 ar  
     3     1     9 1   
     4     2     3 ar  
     5     2    29 1   
     6     3     4 ar  
     7     3    30 1   
     8     4     5 ar  
     9     4    31 1   
    10     5     6 ar  
    11     6     7 1   
    12     7     8 2   
    13     7    32 1   
    14     8     9 1   
    15     8    16 1   
    16    10    11 1   
    17    10    14 1   
    18    10    19 1   
    19    11    12 1   
    20    11    45 2   
    21    12    13 1   
    22    12    15 1   
    23    12    33 1   
    24    13    14 1   
    25    13    34 1   
    26    13    35 1   
    27    14    36 1   
    28    14    37 1   
    29    15    16 1   
    30    15    38 1   
    31    16    17 2   
    32    16    18 2   
    33    19    27 1   
    34    19    39 1   
    35    19    40 1   
    36    20    21 ar  
    37    20    25 ar  
    38    20    28 1   
    39    21    22 ar  
    40    21    26 1   
    41    22    23 ar  
    42    22    46 1   
    43    23    24 ar  
    44    23    41 1   
    45    24    25 ar  
    46    25    42 1   
    47    26    27 2   
    48    26    43 1   
    49    27    28 1   
    50    28    44 1   
@<TRIPOS>SUBSTRUCTURE
     1 PR2         1 TEMP              0 ****  ****    0 ROOT
