@<TRIPOS>MOLECULE
PR3
   23    22     1     0     0
SMALL
bcc


@<TRIPOS>ATOM
      1 N           12.6970    21.0140    16.4450 n8         1 PR3      -0.886800
      2 CA          13.9290    21.3960    15.8050 c3         1 PR3       0.060500
      3 C           14.9570    22.0710    16.6900 c          1 PR3       0.536900
      4 O           14.8030    22.2980    17.8610 o          1 PR3      -0.505100
      5 CB          13.6840    22.2440    14.5570 c3         1 PR3       0.015700
      6 SG          12.9380    23.8530    15.0160 ss         1 PR3      -0.206100
      7 SD          11.7920    24.3390    13.3890 ss         1 PR3      -0.182100
      8 CE          10.1330    23.7470    13.8660 c3         1 PR3       0.010700
      9 CZ           9.9900    22.2400    13.9660 c3         1 PR3      -0.083400
     10 CH          10.2110    21.5070    12.6520 c3         1 PR3      -0.089100
     11 H           12.8820    20.3760    17.2080 hn         1 PR3       0.361300
     12 H2          12.2410    21.8220    16.8490 hn         1 PR3       0.361300
     13 HA          14.4310    20.4910    15.4350 h1         1 PR3       0.079700
     14 HC          15.8980    22.3370    16.1720 h4         1 PR3      -0.005800
     15 HB2         14.6190    22.4240    14.0260 h1         1 PR3       0.080700
     16 HB3         13.0020    21.7180    13.8930 h1         1 PR3       0.080700
     17 HE2          9.8600    24.2360    14.8010 h1         1 PR3       0.076700
     18 HE3          9.4830    24.1510    13.0850 h1         1 PR3       0.076700
     19 HZ2         10.6650    21.8570    14.7350 hc         1 PR3       0.055200
     20 HZ3          8.9790    22.0390    14.3310 hc         1 PR3       0.055200
     21 HH1         10.0640    20.4350    12.7770 hc         1 PR3       0.036700
     22 HH2          9.5140    21.8520    11.8870 hc         1 PR3       0.036700
     23 HH3         11.2210    21.6590    12.2700 hc         1 PR3       0.036700
@<TRIPOS>BOND
     1     1     2 1   
     2     1    11 1   
     3     1    12 1   
     4     2     3 1   
     5     2     5 1   
     6     2    13 1   
     7     3     4 2   
     8     3    14 1   
     9     5     6 1   
    10     5    15 1   
    11     5    16 1   
    12     6     7 1   
    13     7     8 1   
    14     8     9 1   
    15     8    17 1   
    16     8    18 1   
    17     9    10 1   
    18     9    19 1   
    19     9    20 1   
    20    10    21 1   
    21    10    22 1   
    22    10    23 1   
@<TRIPOS>SUBSTRUCTURE
     1 PR3         1 TEMP              0 ****  ****    0 ROOT
