@<TRIPOS>MOLECULE
PR3
   23    22     1     0     0
SMALL
No Charge or Current Charge


@<TRIPOS>ATOM
      1 N           13.0710    20.8370    17.0390 n8         1 PR3      -0.886800
      2 CA          14.0670    21.2710    15.9980 c3         1 PR3       0.060500
      3 C           15.2680    22.1220    16.5210 c          1 PR3       0.536900
      4 O           15.4340    22.4270    17.7000 o          1 PR3      -0.505100
      5 CB          13.3540    21.9930    14.8290 c3         1 PR3       0.015700
      6 SG          12.6080    23.6030    15.3610 ss         1 PR3      -0.206100
      7 SD          11.7570    24.3660    13.6050 ss         1 PR3      -0.182100
      8 CE           9.9740    23.8800    13.7030 c3         1 PR3       0.010700
      9 CZ           9.7680    22.3490    13.6620 c3         1 PR3      -0.083400
     10 CH          10.2480    21.6840    12.3550 c3         1 PR3      -0.089100
     11 H           13.5680    20.3940    17.8210 hn         1 PR3       0.361300
     12 H2          12.6480    21.6710    17.4610 hn         1 PR3       0.361300
     13 HA          14.5220    20.3610    15.5820 h1         1 PR3       0.079700
     14 HC          16.0080    22.4230    15.7470 h4         1 PR3      -0.005800
     15 HB2         14.0730    22.1890    14.0230 h1         1 PR3       0.080700
     16 HB3         12.5660    21.3460    14.4250 h1         1 PR3       0.080700
     17 HE2          9.5540    24.2820    14.6350 h1         1 PR3       0.076700
     18 HE3          9.4380    24.3430    12.8640 h1         1 PR3       0.076700
     19 HZ2         10.2710    21.8850    14.5180 hc         1 PR3       0.055200
     20 HZ3          8.6980    22.1410    13.7860 hc         1 PR3       0.055200
     21 HH1         10.0240    20.6110    12.3700 hc         1 PR3       0.036700
     22 HH2          9.7440    22.1260    11.4870 hc         1 PR3       0.036700
     23 HH3         11.3300    21.8020    12.2240 hc         1 PR3       0.036700
@<TRIPOS>BOND
     1     1     2 1   
     2     1    11 1   
     3     1    12 1   
     4     2     3 1   
     5     2     5 1   
     6     2    13 1   
     7     3     4 2   
     8     3    14 1   
     9     5     6 1   
    10     5    15 1   
    11     5    16 1   
    12     6     7 1   
    13     7     8 1   
    14     8     9 1   
    15     8    17 1   
    16     8    18 1   
    17     9    10 1   
    18     9    19 1   
    19     9    20 1   
    20    10    21 1   
    21    10    22 1   
    22    10    23 1   
@<TRIPOS>SUBSTRUCTURE
     1 PR3         1 TEMP              0 ****  ****    0 ROOT
