@<TRIPOS>MOLECULE
PR4
   25    25     1     0     0
SMALL
bcc


@<TRIPOS>ATOM
      1 C            2.1390    -1.3910    -0.4770 c          1 PR4       0.934600
      2 N            0.5560     0.5300     0.0020 n3         1 PR4      -0.684600
      3 O            1.7640    -1.9340     0.5780 o          1 PR4      -0.842300
      4 CA           1.7080     0.0600    -0.7470 c5         1 PR4       0.047500
      5 CB           2.8070     1.0420    -0.3260 c5         1 PR4      -0.062400
      6 CD           0.5740     1.9760    -0.1490 c5         1 PR4       0.168800
      7 CG           2.0570     2.3580    -0.0570 c5         1 PR4      -0.088400
      8 CAC         -1.8310     0.0770     0.5850 c3         1 PR4      -0.003900
      9 CAD         -3.0160    -0.8480     0.2080 c          1 PR4       0.896600
     10 OAE         -2.8050    -2.0660     0.1200 o          1 PR4      -0.841300
     11 OAF         -4.1030    -0.2500     0.0290 o          1 PR4      -0.841300
     12 OAG         -2.3020     1.4010     0.6460 oh         1 PR4      -0.665800
     13 O5           2.8900    -1.8850    -1.3450 o          1 PR4      -0.842300
     14 HA           1.5390     0.1750    -1.8350 h1         1 PR4      -0.001300
     15 HB           3.2910     0.6880     0.5880 hc         1 PR4       0.028700
     16 HBA          3.5810     1.1360    -1.0870 hc         1 PR4       0.028700
     17 HD           0.1680     2.2770    -1.1310 h1         1 PR4       0.017200
     18 HDA         -0.0350     2.4670     0.6080 h1         1 PR4       0.017200
     19 HG           2.3050     2.7580     0.9260 hc         1 PR4       0.004200
     20 HGA          2.3060     3.1300    -0.7860 hc         1 PR4       0.004200
     21 HAB         -1.0040     0.2310    -1.3990 h1         1 PR4       0.038700
     22 HABA        -0.4970    -1.1780    -0.4610 h1         1 PR4       0.038700
     23 HAC         -1.4640    -0.2370     1.5750 h1         1 PR4       0.046700
     24 HOAG        -3.2440     1.2850     0.4120 ho         1 PR4       0.421000
     25 CAB         -0.6790    -0.1060    -0.3960 c3         1 PR4       0.179800
@<TRIPOS>BOND
     1     1     3 1   
     2     1     4 1   
     3     1    13 1   
     4     2     4 1   
     5     2     6 1   
     6     2    25 1   
     7     4     5 1   
     8     4    14 1   
     9     5     7 1   
    10     5    15 1   
    11     5    16 1   
    12     6     7 1   
    13     6    17 1   
    14     6    18 1   
    15     7    19 1   
    16     7    20 1   
    17     8     9 1   
    18     8    12 1   
    19     8    23 1   
    20     8    25 1   
    21     9    10 1   
    22     9    11 1   
    23    12    24 1   
    24    21    25 1   
    25    22    25 1   
@<TRIPOS>SUBSTRUCTURE
     1 PR4         1 TEMP              0 ****  ****    0 ROOT
