@<TRIPOS>MOLECULE
PR4
   25    25     1     0     0
SMALL
No Charge or Current Charge


@<TRIPOS>ATOM
      1 C            2.2150    -1.4150    -0.7250 c          1 PR4       0.724000
      2 N            0.5660     0.5220     0.0100 n3         1 PR4      -0.684600
      3 O            2.6050    -1.8730     0.3450 o          1 PR4      -0.737000
      4 CA           1.7370     0.1000    -0.8290 c5         1 PR4       0.047500
      5 CB           2.8620     1.0720    -0.3430 c5         1 PR4      -0.062400
      6 CD           0.6000     1.9940    -0.1090 c5         1 PR4       0.168800
      7 CG           2.0840     2.2980     0.2300 c5         1 PR4      -0.088400
      8 CAC         -1.9480     0.2140     0.5550 c3         1 PR4       0.019300
      9 CAD         -3.0150    -0.9280     0.4220 c          1 PR4       0.686000
     10 OAE         -2.9920    -1.8500     1.2250 o          1 PR4      -0.736000
     11 OAF         -3.9150    -0.7730    -0.3950 o          1 PR4      -0.736000
     12 OAG         -2.5120     1.5180     0.2060 oh         1 PR4      -0.728000
     13 O5           2.1660    -2.1150    -1.7300 o          1 PR4      -0.737000
     14 HA           1.5150     0.3060    -1.8860 h1         1 PR4      -0.001300
     15 HB           3.4940     0.6270     0.4340 hc         1 PR4       0.028700
     16 HBA          3.5260     1.3530    -1.1690 hc         1 PR4       0.028700
     17 HD           0.3490     2.3180    -1.1300 h1         1 PR4       0.017200
     18 HDA         -0.0800     2.4960     0.5920 h1         1 PR4       0.017200
     19 HG           2.2290     2.3760     1.3140 hc         1 PR4       0.004200
     20 HGA          2.4170     3.2460    -0.2070 hc         1 PR4       0.004200
     21 HAB         -0.9800     0.0590    -1.3870 h1         1 PR4       0.038700
     22 HABA        -0.5740    -1.2310    -0.2640 h1         1 PR4       0.038700
     23 HAC         -1.6170     0.2160     1.6020 h1         1 PR4       0.046700
     24 HOAG        -3.3060     1.3110    -0.3440 ho         1 PR4       0.460000
     25 CAB         -0.7210    -0.1440    -0.3380 c3         1 PR4       0.179800
@<TRIPOS>BOND
     1     1     3 1   
     2     1     4 1   
     3     1    13 1   
     4     2     4 1   
     5     2     6 1   
     6     2    25 1   
     7     4     5 1   
     8     4    14 1   
     9     5     7 1   
    10     5    15 1   
    11     5    16 1   
    12     6     7 1   
    13     6    17 1   
    14     6    18 1   
    15     7    19 1   
    16     7    20 1   
    17     8     9 1   
    18     8    12 1   
    19     8    23 1   
    20     8    25 1   
    21     9    10 1   
    22     9    11 1   
    23    12    24 1   
    24    21    25 1   
    25    22    25 1   
@<TRIPOS>SUBSTRUCTURE
     1 PR4         1 TEMP              0 ****  ****    0 ROOT
