@<TRIPOS>MOLECULE
PR6
    9     8     1     0     0
SMALL
No Charge or Current Charge


@<TRIPOS>ATOM
      1 Cl          -1.8680    -0.5060    -0.8520 cl         1 PR6      -0.351600
      2 CAH         -0.6540    -0.0360     0.4460 c          1 PR6       0.659700
      3 OAI         -0.7610    -0.4730     1.5840 o          1 PR6      -0.454100
      4 CAJ          0.4100     0.9340    -0.0080 c3         1 PR6      -0.298400
      5 CAK          1.6160     0.0720    -0.2770 c          1 PR6       0.733000
      6 OAL          1.7270    -0.4220    -1.3870 o          1 PR6      -0.708000
      7 OAM          2.3860    -0.1400     0.6450 o          1 PR6      -0.708000
      8 HAJ          0.0550     1.3810    -0.9420 hc         1 PR6       0.063700
      9 HAJA         0.5990     1.6100     0.8330 hc         1 PR6       0.063700
@<TRIPOS>BOND
     1     1     2 1   
     2     2     3 2   
     3     2     4 1   
     4     4     5 1   
     5     4     8 1   
     6     4     9 1   
     7     5     6 1   
     8     5     7 1   
@<TRIPOS>SUBSTRUCTURE
     1 PR6         1 TEMP              0 ****  ****    0 ROOT
