@<TRIPOS>MOLECULE
PR6
    9     8     1     0     0
SMALL
bcc


@<TRIPOS>ATOM
      1 CL          -2.3350     0.5040    -0.2820 cl         1 PR6      -0.351600
      2 CAH         -0.7280    -0.2250     0.1510 c          1 PR6       0.659700
      3 OAI         -0.7160    -1.3280     0.5670 o          1 PR6      -0.454100
      4 CAJ          0.3840     0.7460    -0.0290 c3         1 PR6      -0.298400
      5 CAK          1.8010     0.1170    -0.0390 c          1 PR6       0.943600
      6 OAL          1.9240    -0.9460    -0.6670 o          1 PR6      -0.813300
      7 OAM          2.6820     0.7740     0.5400 o          1 PR6      -0.813300
      8 HAJ          0.2260     1.2890    -0.9640 hc         1 PR6       0.063700
      9 HAJA         0.2720     1.4910     0.7650 hc         1 PR6       0.063700
@<TRIPOS>BOND
     1     1     2 1   
     2     2     3 2   
     3     2     4 1   
     4     4     5 1   
     5     4     8 1   
     6     4     9 1   
     7     5     6 1   
     8     5     7 1   
@<TRIPOS>SUBSTRUCTURE
     1 PR6         1 TEMP              0 ****  ****    0 ROOT
