@<TRIPOS>MOLECULE
PR7
   25    25     1     0     0
SMALL
No Charge or Current Charge


@<TRIPOS>ATOM
      1 C            2.3070     1.3390     0.3980 c          1 PR7       0.724000
      2 N            0.6320    -0.6340    -0.1390 n3         1 PR7      -0.668600
      3 O            2.6430     1.7710    -0.7010 o          1 PR7      -0.737500
      4 CA           1.8730    -0.1820     0.5720 c5         1 PR7       0.046500
      5 CB           2.9620    -1.1490    -0.0020 c5         1 PR7      -0.059400
      6 CD           0.7070    -2.1030    -0.0170 c5         1 PR7       0.163800
      7 CG           2.1470    -2.3750    -0.5240 c5         1 PR7      -0.085400
      8 CAB         -0.6310    -0.0050     0.3370 c3         1 PR7       0.173800
      9 CAC         -1.9330    -0.4290    -0.4080 c3         1 PR7       0.031300
     10 CAD         -3.1600     0.2350     0.3080 c          1 PR7       0.689000
     11 OAE         -3.6320     1.2490    -0.1920 o          1 PR7      -0.741500
     12 OAF         -3.6730    -0.3440     1.2560 o          1 PR7      -0.741500
     13 OAG         -1.8780    -0.0780    -1.8230 oh         1 PR7      -0.686000
     14 O5           2.2910     2.0690     1.3820 o          1 PR7      -0.737500
     15 HA           1.7580    -0.3720     1.6490 h1         1 PR7      -0.001300
     16 HB           3.5390    -0.7010    -0.8190 hc         1 PR7       0.026700
     17 HBA          3.6820    -1.4340     0.7730 hc         1 PR7       0.026700
     18 HD           0.5830    -2.4240     1.0270 h1         1 PR7       0.008700
     19 HDA         -0.0440    -2.6200    -0.6300 h1         1 PR7       0.008700
     20 HG           2.1740    -2.4200    -1.6200 hc         1 PR7       0.007200
     21 HGA          2.5410    -3.3280    -0.1540 hc         1 PR7       0.007200
     22 HAB         -0.7660    -0.2340     1.4040 h1         1 PR7       0.042700
     23 HABA        -0.5450     1.0880     0.2640 h1         1 PR7       0.042700
     24 HAC         -2.0510    -1.5170    -0.3110 h1         1 PR7       0.003700
     25 HOAG        -2.4270     0.7390    -1.9000 ho         1 PR7       0.456000
@<TRIPOS>BOND
     1     1     3 1   
     2     1     4 1   
     3     1    14 1   
     4     2     4 1   
     5     2     6 1   
     6     2     8 1   
     7     4     5 1   
     8     4    15 1   
     9     5     7 1   
    10     5    16 1   
    11     5    17 1   
    12     6     7 1   
    13     6    18 1   
    14     6    19 1   
    15     7    20 1   
    16     7    21 1   
    17     8     9 1   
    18     8    22 1   
    19     8    23 1   
    20     9    10 1   
    21     9    13 1   
    22     9    24 1   
    23    10    11 1   
    24    10    12 1   
    25    13    25 1   
@<TRIPOS>SUBSTRUCTURE
     1 PR7         1 TEMP              0 ****  ****    0 ROOT
