@<TRIPOS>MOLECULE
PR7
   25    25     1     0     0
SMALL
bcc


@<TRIPOS>ATOM
      1 C            2.2270     1.2970     0.4030 c          1 PR7       0.934600
      2 N            0.6330    -0.5930    -0.1610 n3         1 PR7      -0.668600
      3 O            1.7930     1.9300    -0.5760 o          1 PR7      -0.842800
      4 CA           1.8140    -0.1740     0.5690 c5         1 PR7       0.046500
      5 CB           2.9070    -1.1160     0.0380 c5         1 PR7      -0.059400
      6 CD           0.6760    -2.0430    -0.1310 c5         1 PR7       0.163800
      7 CG           2.1420    -2.3750    -0.4130 c5         1 PR7      -0.085400
      8 CAB         -0.5850    -0.0280     0.3720 c3         1 PR7       0.173800
      9 CAC         -1.8310    -0.3940    -0.4260 c3         1 PR7       0.008100
     10 CAD         -3.0870     0.2280     0.2270 c          1 PR7       0.899600
     11 OAE         -3.7430     0.9900    -0.5210 o          1 PR7      -0.846800
     12 OAF         -3.3410    -0.0730     1.4030 o          1 PR7      -0.846800
     13 OAG         -1.7370     0.0360    -1.7600 oh         1 PR7      -0.623800
     14 O5           3.0260     1.7160     1.2680 o          1 PR7      -0.842800
     15 HA           1.6820    -0.3730     1.6510 h1         1 PR7      -0.001300
     16 HB           3.4240    -0.6630    -0.8100 hc         1 PR7       0.026700
     17 HBA          3.6590    -1.3210     0.7980 hc         1 PR7       0.026700
     18 HD           0.3830    -2.4390     0.8580 h1         1 PR7       0.008700
     19 HDA         -0.0020    -2.4840    -0.8650 h1         1 PR7       0.008700
     20 HG           2.3000    -2.5610    -1.4760 hc         1 PR7       0.007200
     21 HGA          2.4570    -3.2730     0.1180 hc         1 PR7       0.007200
     22 HAB         -0.7430    -0.3440     1.4180 h1         1 PR7       0.042700
     23 HABA        -0.4810     1.0600     0.3770 h1         1 PR7       0.042700
     24 HAC         -1.9620    -1.4870    -0.3960 h1         1 PR7       0.003700
     25 HOAG        -2.5110     0.6260    -1.8340 ho         1 PR7       0.417000
@<TRIPOS>BOND
     1     1     3 1   
     2     1     4 1   
     3     1    14 1   
     4     2     4 1   
     5     2     6 1   
     6     2     8 1   
     7     4     5 1   
     8     4    15 1   
     9     5     7 1   
    10     5    16 1   
    11     5    17 1   
    12     6     7 1   
    13     6    18 1   
    14     6    19 1   
    15     7    20 1   
    16     7    21 1   
    17     8     9 1   
    18     8    22 1   
    19     8    23 1   
    20     9    10 1   
    21     9    13 1   
    22     9    24 1   
    23    10    11 1   
    24    10    12 1   
    25    13    25 1   
@<TRIPOS>SUBSTRUCTURE
     1 PR7         1 TEMP              0 ****  ****    0 ROOT
