@<TRIPOS>MOLECULE
PR9
   18    18     1     0     0
SMALL
abcg2


@<TRIPOS>ATOM
      1 O          -15.8800     8.4170    13.3630 o          1 PR9      -0.607100
      2 C          -15.3390     7.4250    13.8340 c          1 PR9       0.570100
      3 CA         -14.3470     7.5670    14.9920 c5         1 PR9       0.112500
      4 NXT        -15.5780     6.1840    13.3870 nt         1 PR9      -0.611000
      5 N          -13.5980     6.4020    15.3960 n7         1 PR9      -0.921400
      6 CD         -14.3420     5.6200    16.3840 c5         1 PR9       0.177800
      7 CG         -15.5000     6.5360    16.8110 c5         1 PR9      -0.098400
      8 CB         -15.1000     7.9130    16.2820 c5         1 PR9      -0.071400
      9 H          -13.1740     5.8700    14.6510 hn         1 PR9       0.436000
     10 HA         -13.6730     8.3800    14.7040 h1         1 PR9       0.093700
     11 HD1C       -14.7210     4.6720    15.9890 h1         1 PR9       0.034700
     12 HD2C       -13.6980     5.3700    17.2320 h1         1 PR9       0.034700
     13 HB1C       -14.4130     8.4090    16.9710 hc         1 PR9       0.064700
     14 HB2C       -15.9450     8.5800    16.1200 hc         1 PR9       0.064700
     15 HG1C       -15.6580     6.5290    17.8880 hc         1 PR9       0.049700
     16 HG2C       -16.4330     6.2150    16.3460 hc         1 PR9       0.049700
     17 HXT1       -15.1250     5.3740    13.7700 hn         1 PR9       0.311000
     18 HXT2       -16.2260     6.0350    12.6300 hn         1 PR9       0.311000
@<TRIPOS>BOND
     1     1     2 2   
     2     2     3 1   
     3     2     4 1   
     4     3     5 1   
     5     3     8 1   
     6     3    10 1   
     7     4    17 1   
     8     4    18 1   
     9     5     6 1   
    10     5     9 1   
    11     6     7 1   
    12     6    11 1   
    13     6    12 1   
    14     7     8 1   
    15     7    15 1   
    16     7    16 1   
    17     8    13 1   
    18     8    14 1   
@<TRIPOS>SUBSTRUCTURE
     1 PR9         1 TEMP              0 ****  ****    0 ROOT
