@<TRIPOS>MOLECULE
PR9
   18    18     1     0     0
SMALL
No Charge or Current Charge


@<TRIPOS>ATOM
      1 O          -14.7160     8.4520    12.7450 o          1 PR9      -0.607100
      2 C          -15.0390     7.6400    13.5980 c          1 PR9       0.570100
      3 CA         -14.3230     7.4390    14.9930 c5         1 PR9       0.112500
      4 NXT        -16.0850     6.8100    13.3570 nt         1 PR9      -0.611000
      5 N          -13.6480     6.0960    15.1780 n7         1 PR9      -0.921400
      6 CD         -13.8330     5.7780    16.6080 c5         1 PR9       0.177800
      7 CG         -15.3130     6.1510    16.8260 c5         1 PR9      -0.098400
      8 CB         -15.3460     7.5610    16.1780 c5         1 PR9      -0.071400
      9 H          -14.1660     5.3920    14.6350 hn         1 PR9       0.436000
     10 HA         -13.5840     8.2490    15.0760 h1         1 PR9       0.093700
     11 HD1C       -13.6310     4.7190    16.8230 h1         1 PR9       0.034700
     12 HD2C       -13.1690     6.3890    17.2370 h1         1 PR9       0.034700
     13 HB1C       -15.0090     8.3230    16.8910 hc         1 PR9       0.064700
     14 HB2C       -16.3550     7.8550    15.8650 hc         1 PR9       0.064700
     15 HG1C       -15.5900     6.1680    17.8860 hc         1 PR9       0.049700
     16 HG2C       -15.9860     5.4500    16.3180 hc         1 PR9       0.049700
     17 HXT1       -16.3730     6.1420    14.0560 hn         1 PR9       0.311000
     18 HXT2       -16.5820     6.8840    12.4810 hn         1 PR9       0.311000
@<TRIPOS>BOND
     1     1     2 2   
     2     2     3 1   
     3     2     4 1   
     4     3     5 1   
     5     3     8 1   
     6     3    10 1   
     7     4    17 1   
     8     4    18 1   
     9     5     6 1   
    10     5     9 1   
    11     6     7 1   
    12     6    11 1   
    13     6    12 1   
    14     7     8 1   
    15     7    15 1   
    16     7    16 1   
    17     8    13 1   
    18     8    14 1   
@<TRIPOS>SUBSTRUCTURE
     1 PR9         1 TEMP              0 ****  ****    0 ROOT
