@<TRIPOS>MOLECULE
PRA
   24    24     1     0     0
SMALL
No Charge or Current Charge


@<TRIPOS>ATOM
      1 C1          -3.2510    -0.0040    -0.3680 c3         1 PRA       0.095600
      2 C2          -1.8040     0.0020     0.1480 c3         1 PRA      -0.107400
      3 C3          -0.7660    -0.0120    -0.9930 c3         1 PRA      -0.014100
      4 C7           0.6620    -0.0060    -0.4630 ca         1 PRA      -0.115300
      5 C8           1.3280    -1.2200    -0.2010 ca         1 PRA      -0.101000
      6 C9           2.6440    -1.2150     0.2930 ca         1 PRA      -0.100000
      7 C4           3.3030     0.0040     0.5280 ca         1 PRA      -0.086000
      8 C5           2.6430     1.2180     0.2690 ca         1 PRA      -0.100000
      9 C6           1.3270     1.2130    -0.2240 ca         1 PRA      -0.101000
     10 N           -4.2280     0.0100     0.7790 nz         1 PRA      -0.973000
     11 H11         -3.4190    -0.8990    -0.9770 hx         1 PRA       0.105700
     12 H12         -3.4180     0.8780    -0.9980 hx         1 PRA       0.105700
     13 H21         -1.6420     0.8920     0.7690 hc         1 PRA       0.068700
     14 H22         -1.6430    -0.8740     0.7900 hc         1 PRA       0.068700
     15 H31         -0.9310    -0.8960    -1.6210 hc         1 PRA       0.058700
     16 H32         -0.9300     0.8580    -1.6420 hc         1 PRA       0.058700
     17 H2           0.8250    -2.1680    -0.3770 ha         1 PRA       0.108000
     18 H3           3.1530    -2.1550     0.4940 ha         1 PRA       0.127000
     19 H4           4.3220     0.0080     0.9100 ha         1 PRA       0.129000
     20 H5           3.1520     2.1630     0.4520 ha         1 PRA       0.127000
     21 H6           0.8230     2.1570    -0.4190 ha         1 PRA       0.108000
     22 HN1         -5.2140     0.0070     0.4700 hn         1 PRA       0.512000
     23 HN2         -4.1350     0.8400     1.3850 hn         1 PRA       0.512000
     24 HN3         -4.1360    -0.8050     1.4040 hn         1 PRA       0.512000
@<TRIPOS>BOND
     1     1     2 1   
     2     1    10 1   
     3     1    11 1   
     4     1    12 1   
     5     2     3 1   
     6     2    13 1   
     7     2    14 1   
     8     3     4 1   
     9     3    15 1   
    10     3    16 1   
    11     4     5 ar  
    12     4     9 ar  
    13     5     6 ar  
    14     5    17 1   
    15     6     7 ar  
    16     6    18 1   
    17     7     8 ar  
    18     7    19 1   
    19     8     9 ar  
    20     8    20 1   
    21     9    21 1   
    22    10    22 1   
    23    10    23 1   
    24    10    24 1   
@<TRIPOS>SUBSTRUCTURE
     1 PRA         1 TEMP              0 ****  ****    0 ROOT
