@<TRIPOS>MOLECULE
PRA
   24    24     1     0     0
SMALL
bcc


@<TRIPOS>ATOM
      1 C1          -3.1990    -0.0030    -0.3530 c3         1 PRA       0.123800
      2 C2          -1.7820    -0.0030     0.1850 c3         1 PRA      -0.107400
      3 C3          -0.7730    -0.0120    -0.9630 c3         1 PRA      -0.014100
      4 C7           0.6450    -0.0060    -0.4660 ca         1 PRA      -0.115300
      5 C8           1.3130    -1.2010    -0.2030 ca         1 PRA      -0.119000
      6 C9           2.6130    -1.1980     0.2850 ca         1 PRA      -0.118000
      7 C4           3.2670     0.0050     0.5190 ca         1 PRA      -0.104000
      8 C5           2.6110     1.2020     0.2620 ca         1 PRA      -0.118000
      9 C6           1.3110     1.1940    -0.2260 ca         1 PRA      -0.119000
     10 N           -4.1930     0.0120     0.7510 nz         1 PRA      -0.835600
     11 H11         -3.4030    -0.8920    -0.9460 hx         1 PRA       0.105700
     12 H12         -3.3960     0.8740    -0.9650 hx         1 PRA       0.105700
     13 H21         -1.6240     0.8810     0.8100 hc         1 PRA       0.068700
     14 H22         -1.6270    -0.8770     0.8230 hc         1 PRA       0.068700
     15 H31         -0.9430    -0.8940    -1.5860 hc         1 PRA       0.058700
     16 H32         -0.9440     0.8580    -1.6020 hc         1 PRA       0.058700
     17 H2           0.8130    -2.1440    -0.3890 ha         1 PRA       0.126000
     18 H3           3.1170    -2.1360     0.4780 ha         1 PRA       0.145000
     19 H4           4.2820     0.0090     0.8960 ha         1 PRA       0.147000
     20 H5           3.1140     2.1450     0.4370 ha         1 PRA       0.145000
     21 H6           0.8100     2.1330    -0.4300 ha         1 PRA       0.126000
     22 HN1         -5.1480     0.0020     0.3950 hn         1 PRA       0.456800
     23 HN2         -4.1030     0.8440     1.3340 hn         1 PRA       0.456800
     24 HN3         -4.0960    -0.7970     1.3630 hn         1 PRA       0.456800
@<TRIPOS>BOND
     1     1     2 1   
     2     1    10 1   
     3     1    11 1   
     4     1    12 1   
     5     2     3 1   
     6     2    13 1   
     7     2    14 1   
     8     3     4 1   
     9     3    15 1   
    10     3    16 1   
    11     4     5 ar  
    12     4     9 ar  
    13     5     6 ar  
    14     5    17 1   
    15     6     7 ar  
    16     6    18 1   
    17     7     8 ar  
    18     7    19 1   
    19     8     9 ar  
    20     8    20 1   
    21     9    21 1   
    22    10    22 1   
    23    10    23 1   
    24    10    24 1   
@<TRIPOS>SUBSTRUCTURE
     1 PRA         1 TEMP              0 ****  ****    0 ROOT
