@<TRIPOS>MOLECULE
PRB
   59    62     1     0     0
SMALL
abcg2


@<TRIPOS>ATOM
      1 C1           9.9920    23.8560    22.6310 c2         1 PRB      -0.142200
      2 C2           9.0750    22.9220    22.9130 ce         1 PRB      -0.209400
      3 C3           8.7290    23.0280    24.3320 c          1 PRB       0.548300
      4 O3           8.0050    22.2880    24.9620 o          1 PRB      -0.514100
      5 C4           9.4110    24.2800    24.9130 c5         1 PRB       0.095000
      6 O4           8.3870    25.2510    25.0050 oh         1 PRB      -0.650000
      7 C5          10.1160    23.9910    26.2410 c3         1 PRB      -0.052200
      8 C6          11.3440    24.8030    26.5700 c2         1 PRB      -0.140400
      9 C7          11.7060    25.9650    26.0220 c2         1 PRB      -0.163200
     10 C8          10.9080    26.7900    25.0500 c6         1 PRB       0.004500
     11 C9          10.7720    26.1720    23.6390 c6         1 PRB       0.231000
     12 O9          12.0470    26.2180    23.0330 oh         1 PRB      -0.642000
     13 C10         10.4130    24.6720    23.8170 c5         1 PRB      -0.069500
     14 C11          9.7690    27.0530    22.8550 c6         1 PRB      -0.079700
     15 C12         10.3390    28.4720    22.6530 c6         1 PRB       0.204300
     16 O12          9.2730    29.3100    22.2530 oh         1 PRB      -0.657000
     17 C13         11.1050    29.0640    23.8200 cx         1 PRB       0.108000
     18 C14         11.4350    28.2130    25.0000 cx         1 PRB      -0.086700
     19 C15         10.4970    29.3910    25.1560 cx         1 PRB      -0.082000
     20 C16          9.0200    29.2200    25.4260 c3         1 PRB      -0.058100
     21 C17         11.0490    30.5870    25.9050 c3         1 PRB      -0.058100
     22 C18          9.3500    26.5090    21.4900 c3         1 PRB      -0.091100
     23 C19          8.5030    21.8820    22.0150 c3         1 PRB      -0.029900
     24 C20         12.2540    24.1540    27.5760 c3         1 PRB       0.199800
     25 O20         12.8560    23.0170    26.9850 oh         1 PRB      -0.659000
     26 OA1         11.9970    30.0710    23.3690 os         1 PRB      -0.445100
     27 CA1         13.2680    29.8270    23.0380 c          1 PRB       0.590100
     28 OA2         13.7870    28.7440    23.0570 o          1 PRB      -0.455000
     29 CA2         13.9550    31.1060    22.6510 c3         1 PRB      -0.158100
     30 H1          10.4680    23.9530    21.6630 ha         1 PRB       0.191000
     31 HO4          7.7710    24.9840    25.6980 ho         1 PRB       0.455000
     32 H51          9.3980    24.0490    27.0680 hc         1 PRB       0.064700
     33 H52         10.4390    22.9450    26.2260 hc         1 PRB       0.064700
     34 H7          12.6570    26.3840    26.3390 ha         1 PRB       0.180000
     35 H8           9.8910    26.8250    25.4400 hc         1 PRB       0.086700
     36 HO9         11.9730    25.9790    22.1040 ho         1 PRB       0.441000
     37 H10         11.3750    24.2410    24.1180 hc         1 PRB       0.101700
     38 H11          8.8610    27.1140    23.4570 hc         1 PRB       0.089700
     39 H12         11.0670    28.3870    21.8330 h1         1 PRB       0.037700
     40 HO12         9.6440    30.1260    21.9020 ho         1 PRB       0.450000
     41 H14         12.4200    28.3530    25.4350 hc         1 PRB       0.097700
     42 H161         8.8580    29.0280    26.4880 hc         1 PRB       0.040533
     43 H162         8.4880    30.1380    25.1730 hc         1 PRB       0.040533
     44 H163         8.5450    28.4150    24.8740 hc         1 PRB       0.040533
     45 H171        10.7930    30.4960    26.9630 hc         1 PRB       0.040533
     46 H172        12.1320    30.6760    25.8440 hc         1 PRB       0.040533
     47 H173        10.6110    31.5190    25.5430 hc         1 PRB       0.040533
     48 H181         8.7660    27.2560    20.9540 hc         1 PRB       0.039700
     49 H182        10.2010    26.2550    20.8520 hc         1 PRB       0.039700
     50 H183         8.7210    25.6260    21.5820 hc         1 PRB       0.039700
     51 H191         8.7110    20.8790    22.3910 hc         1 PRB       0.047367
     52 H192         7.4180    21.9750    21.9440 hc         1 PRB       0.047367
     53 H193         8.9160    21.9580    21.0110 hc         1 PRB       0.047367
     54 H201        13.0080    24.8760    27.9110 h1         1 PRB       0.025700
     55 H202        11.6680    23.8710    28.4610 h1         1 PRB       0.025700
     56 HO20        13.1230    22.4160    27.6860 ho         1 PRB       0.442000
     57 HA21        14.9940    30.9170    22.3940 hc         1 PRB       0.067367
     58 HA22        13.4560    31.5670    21.7980 hc         1 PRB       0.067367
     59 HA23        13.9160    31.8230    23.4720 hc         1 PRB       0.067367
@<TRIPOS>BOND
     1     1     2 2   
     2     1    13 1   
     3     1    30 1   
     4     2     3 1   
     5     2    23 1   
     6     3     4 2   
     7     3     5 1   
     8     5     6 1   
     9     5     7 1   
    10     5    13 1   
    11     6    31 1   
    12     7     8 1   
    13     7    32 1   
    14     7    33 1   
    15     8     9 2   
    16     8    24 1   
    17     9    10 1   
    18     9    34 1   
    19    10    11 1   
    20    10    18 1   
    21    10    35 1   
    22    11    12 1   
    23    11    13 1   
    24    11    14 1   
    25    12    36 1   
    26    13    37 1   
    27    14    15 1   
    28    14    22 1   
    29    14    38 1   
    30    15    16 1   
    31    15    17 1   
    32    15    39 1   
    33    16    40 1   
    34    17    18 1   
    35    17    19 1   
    36    17    26 1   
    37    18    19 1   
    38    18    41 1   
    39    19    20 1   
    40    19    21 1   
    41    20    42 1   
    42    20    43 1   
    43    20    44 1   
    44    21    45 1   
    45    21    46 1   
    46    21    47 1   
    47    22    48 1   
    48    22    49 1   
    49    22    50 1   
    50    23    51 1   
    51    23    52 1   
    52    23    53 1   
    53    24    25 1   
    54    24    54 1   
    55    24    55 1   
    56    25    56 1   
    57    26    27 1   
    58    27    28 2   
    59    27    29 1   
    60    29    57 1   
    61    29    58 1   
    62    29    59 1   
@<TRIPOS>SUBSTRUCTURE
     1 PRB         1 TEMP              0 ****  ****    0 ROOT
