@<TRIPOS>MOLECULE
PRB
   59    62     1     0     0
SMALL
No Charge or Current Charge


@<TRIPOS>ATOM
      1 C1          10.0920    23.7670    22.5920 c2         1 PRB      -0.142200
      2 C2           9.2490    22.7910    22.9730 ce         1 PRB      -0.209400
      3 C3           8.8950    22.8190    24.4170 c          1 PRB       0.548300
      4 O3           8.2880    21.9470    25.0310 o          1 PRB      -0.514100
      5 C4           9.3450    24.2460    24.8930 c5         1 PRB       0.095000
      6 O4           8.2020    25.1260    24.8330 oh         1 PRB      -0.650000
      7 C5           9.8720    24.2340    26.3770 c3         1 PRB      -0.052200
      8 C6          11.2670    24.8310    26.6360 c2         1 PRB      -0.140400
      9 C7          11.7720    25.9270    26.0310 c2         1 PRB      -0.163200
     10 C8          11.0020    26.7900    25.0340 c6         1 PRB       0.004500
     11 C9          10.8350    26.1320    23.6110 c6         1 PRB       0.231000
     12 O9          12.0990    26.1510    22.9310 oh         1 PRB      -0.642000
     13 C10         10.4500    24.6050    23.8170 c5         1 PRB      -0.069500
     14 C11          9.8100    27.0380    22.8020 c6         1 PRB      -0.079700
     15 C12         10.3420    28.5100    22.6300 c6         1 PRB       0.204300
     16 O12          9.2950    29.4100    22.2330 oh         1 PRB      -0.657000
     17 C13         11.1210    29.1540    23.8210 cx         1 PRB       0.108000
     18 C14         11.5200    28.2470    24.9720 cx         1 PRB      -0.086700
     19 C15         10.5720    29.4150    25.2230 cx         1 PRB      -0.082000
     20 C16          9.0740    29.2660    25.5300 c3         1 PRB      -0.058100
     21 C17         11.1230    30.5720    26.0650 c3         1 PRB      -0.058100
     22 C18          9.3830    26.4890    21.4010 c3         1 PRB      -0.091100
     23 C19          8.5680    21.8170    22.0280 c3         1 PRB      -0.029900
     24 C20         12.0690    24.0510    27.6650 c3         1 PRB       0.199800
     25 O20         12.7410    22.9620    27.0260 oh         1 PRB      -0.659000
     26 OA1         12.0000    30.1880    23.3970 os         1 PRB      -0.445100
     27 CA1         13.2200    29.9310    22.8270 c          1 PRB       0.590100
     28 OA2         13.6800    28.8190    22.6210 o          1 PRB      -0.455000
     29 CA2         13.9530    31.2200    22.4850 c3         1 PRB      -0.158100
     30 H1          10.4480    23.9150    21.5700 ha         1 PRB       0.191000
     31 HO4          7.4820    24.7130    25.3600 ho         1 PRB       0.455000
     32 H51          9.1520    24.7150    27.0500 hc         1 PRB       0.064700
     33 H52          9.8870    23.1890    26.7110 hc         1 PRB       0.064700
     34 H7          12.7850    26.2560    26.2670 ha         1 PRB       0.180000
     35 H8           9.9980    26.8510    25.4630 hc         1 PRB       0.086700
     36 HO9         11.9530    25.7480    22.0520 ho         1 PRB       0.441000
     37 H10         11.3920    24.1570    24.1570 hc         1 PRB       0.101700
     38 H11          8.8730    27.0830    23.3630 hc         1 PRB       0.089700
     39 H12         11.0750    28.4620    21.8110 h1         1 PRB       0.037700
     40 HO12         9.6970    30.3060    22.2500 ho         1 PRB       0.450000
     41 H14         12.5540    28.3460    25.2930 hc         1 PRB       0.097700
     42 H161         8.9210    28.9520    26.5700 hc         1 PRB       0.040533
     43 H162         8.5530    30.2210    25.3940 hc         1 PRB       0.040533
     44 H163         8.5630    28.5420    24.8950 hc         1 PRB       0.040533
     45 H171        10.9120    30.4200    27.1300 hc         1 PRB       0.040533
     46 H172        12.2110    30.6760    25.9640 hc         1 PRB       0.040533
     47 H173        10.6720    31.5260    25.7650 hc         1 PRB       0.040533
     48 H181         8.8080    27.2330    20.8360 hc         1 PRB       0.039700
     49 H182        10.2480    26.2180    20.7830 hc         1 PRB       0.039700
     50 H183         8.7240    25.6200    21.4890 hc         1 PRB       0.039700
     51 H191         9.1060    20.8620    21.9940 hc         1 PRB       0.047367
     52 H192         7.5380    21.6070    22.3390 hc         1 PRB       0.047367
     53 H193         8.5270    22.2110    21.0060 hc         1 PRB       0.047367
     54 H201        12.8000    24.7160    28.1440 h1         1 PRB       0.025700
     55 H202        11.4040    23.6790    28.4560 h1         1 PRB       0.025700
     56 HO20        13.2600    22.5030    27.7220 ho         1 PRB       0.442000
     57 HA21        14.9360    31.0410    22.0360 hc         1 PRB       0.067367
     58 HA22        13.3130    31.8300    21.8390 hc         1 PRB       0.067367
     59 HA23        14.0230    31.8360    23.3890 hc         1 PRB       0.067367
@<TRIPOS>BOND
     1     1     2 2   
     2     1    13 1   
     3     1    30 1   
     4     2     3 1   
     5     2    23 1   
     6     3     4 2   
     7     3     5 1   
     8     5     6 1   
     9     5     7 1   
    10     5    13 1   
    11     6    31 1   
    12     7     8 1   
    13     7    32 1   
    14     7    33 1   
    15     8     9 2   
    16     8    24 1   
    17     9    10 1   
    18     9    34 1   
    19    10    11 1   
    20    10    18 1   
    21    10    35 1   
    22    11    12 1   
    23    11    13 1   
    24    11    14 1   
    25    12    36 1   
    26    13    37 1   
    27    14    15 1   
    28    14    22 1   
    29    14    38 1   
    30    15    16 1   
    31    15    17 1   
    32    15    39 1   
    33    16    40 1   
    34    17    18 1   
    35    17    19 1   
    36    17    26 1   
    37    18    19 1   
    38    18    41 1   
    39    19    20 1   
    40    19    21 1   
    41    20    42 1   
    42    20    43 1   
    43    20    44 1   
    44    21    45 1   
    45    21    46 1   
    46    21    47 1   
    47    22    48 1   
    48    22    49 1   
    49    22    50 1   
    50    23    51 1   
    51    23    52 1   
    52    23    53 1   
    53    24    25 1   
    54    24    54 1   
    55    24    55 1   
    56    25    56 1   
    57    26    27 1   
    58    27    28 2   
    59    27    29 1   
    60    29    57 1   
    61    29    58 1   
    62    29    59 1   
@<TRIPOS>SUBSTRUCTURE
     1 PRB         1 TEMP              0 ****  ****    0 ROOT
