@<TRIPOS>MOLECULE
PRC
   47    50     1     0     0
SMALL
No Charge or Current Charge


@<TRIPOS>ATOM
      1 C1           0.0300     1.4430    -7.3200 ca         1 PRC      -0.174000
      2 C2          -0.9750     0.9010    -8.1320 ca         1 PRC       0.350900
      3 N3          -1.9090     0.0440    -7.6650 nb         1 PRC      -0.669000
      4 C4          -1.8620    -0.2940    -6.3560 ca         1 PRC       0.360900
      5 C5          -0.8920     0.1960    -5.4420 cp         1 PRC      -0.216500
      6 C6           0.0800     1.0910    -5.9630 ca         1 PRC      -0.029000
      7 C7          -0.8930    -0.2210    -4.0010 cp         1 PRC       0.235500
      8 N8           0.2270     0.0150    -3.2870 nb         1 PRC      -0.259000
      9 C9           0.2370    -0.3400    -1.9930 ca         1 PRC       0.393900
     10 N10         -0.7620    -0.9400    -1.3200 nb         1 PRC      -0.234000
     11 C11         -1.8890    -1.1810    -2.0130 ca         1 PRC       0.149900
     12 C12         -2.0030    -0.8330    -3.3680 ca         1 PRC      -0.266000
     13 N13          1.4360    -0.0970    -1.3380 nu         1 PRC      -0.928900
     14 C14          1.8750    -0.2060    -0.0140 ca         1 PRC       0.350000
     15 C15          0.9880    -0.0190     1.0620 ca         1 PRC      -0.201000
     16 C16          1.4230    -0.1120     2.3950 ca         1 PRC       0.006000
     17 C17          2.7830    -0.3860     2.6460 ca         1 PRC      -0.158000
     18 C18          3.6810    -0.5560     1.5810 ca         1 PRC      -0.057000
     19 C19          3.2400    -0.4640     0.2480 ca         1 PRC      -0.156300
     20 C20          4.2500    -0.6570    -0.8840 c3         1 PRC      -0.045800
     21 N21          0.4520     0.0900     3.4160 ns         1 PRC      -0.144000
     22 C22          0.5220     0.0360     4.8050 c          1 PRC       0.630700
     23 C23         -0.7580     0.3270     5.5470 ca         1 PRC      -0.212600
     24 C25         -0.7890     0.2950     6.9590 ca         1 PRC      -0.022000
     25 C26         -2.0000     0.5720     7.6110 ca         1 PRC      -0.171000
     26 C27         -3.1370     0.8710     6.8470 ca         1 PRC       0.355900
     27 N28         -3.1200     0.9050     5.4950 nb         1 PRC      -0.668000
     28 C29         -1.9530     0.6370     4.8660 ca         1 PRC       0.359900
     29 O29          1.5490    -0.2340     5.4170 o          1 PRC      -0.571100
     30 HC1          0.7600     2.1280    -7.7430 ha         1 PRC       0.127000
     31 HC2         -1.0350     1.1590    -9.1890 h4         1 PRC       0.021100
     32 HC4         -2.6270    -0.9980    -6.0360 h4         1 PRC       0.020100
     33 HC6          0.8570     1.5140    -5.3290 ha         1 PRC       0.138000
     34 H11C        -2.7090    -1.6560    -1.4750 h4         1 PRC       0.024100
     35 H12C        -2.9310    -1.0280    -3.8950 ha         1 PRC       0.139000
     36 H13N         2.1890     0.1100    -1.9890 hn         1 PRC       0.512000
     37 H15C        -0.0510     0.2210     0.8630 ha         1 PRC       0.149000
     38 H17C         3.1700    -0.4630     3.6570 ha         1 PRC       0.150000
     39 H18C         4.7280    -0.7600     1.7980 ha         1 PRC       0.114000
     40 H201         3.9390    -1.4620    -1.5610 hc         1 PRC       0.041700
     41 H202         4.3630     0.2610    -1.4750 hc         1 PRC       0.041700
     42 H203         5.2440    -0.9210    -0.5030 hc         1 PRC       0.041700
     43 H21N        -0.4640     0.3180     3.0570 hn         1 PRC       0.156000
     44 H25C         0.1020     0.0610     7.5400 ha         1 PRC       0.141000
     45 H26C        -2.0630     0.5570     8.6950 ha         1 PRC       0.130000
     46 H27C        -4.0890     1.0900     7.3280 h4         1 PRC       0.023100
     47 H29C        -1.9970     0.6790     3.7790 h4         1 PRC       0.021100
@<TRIPOS>BOND
     1     1     2 ar  
     2     1     6 ar  
     3     1    30 1   
     4     2     3 ar  
     5     2    31 1   
     6     3     4 ar  
     7     4     5 ar  
     8     4    32 1   
     9     5     6 ar  
    10     5     7 1   
    11     6    33 1   
    12     7     8 ar  
    13     7    12 ar  
    14     8     9 ar  
    15     9    10 ar  
    16     9    13 1   
    17    10    11 ar  
    18    11    12 ar  
    19    11    34 1   
    20    12    35 1   
    21    13    14 1   
    22    13    36 1   
    23    14    15 ar  
    24    14    19 ar  
    25    15    16 ar  
    26    15    37 1   
    27    16    17 ar  
    28    16    21 1   
    29    17    18 ar  
    30    17    38 1   
    31    18    19 ar  
    32    18    39 1   
    33    19    20 1   
    34    20    40 1   
    35    20    41 1   
    36    20    42 1   
    37    21    22 1   
    38    21    43 1   
    39    22    23 1   
    40    22    29 2   
    41    23    24 ar  
    42    23    28 ar  
    43    24    25 ar  
    44    24    44 1   
    45    25    26 ar  
    46    25    45 1   
    47    26    27 ar  
    48    26    46 1   
    49    27    28 ar  
    50    28    47 1   
@<TRIPOS>SUBSTRUCTURE
     1 PRC         1 TEMP              0 ****  ****    0 ROOT
