@<TRIPOS>MOLECULE
PRC
   47    50     1     0     0
SMALL
abcg2


@<TRIPOS>ATOM
      1 C1           0.3350     0.4400    -7.4210 ca         1 PRC      -0.174000
      2 C2          -0.7920     0.0200    -8.1130 ca         1 PRC       0.350900
      3 N3          -1.9030    -0.3860    -7.5120 nb         1 PRC      -0.669000
      4 C4          -1.9330    -0.3710    -6.1880 ca         1 PRC       0.360900
      5 C5          -0.8670     0.0400    -5.3910 cp         1 PRC      -0.216500
      6 C6           0.2980     0.4440    -6.0400 ca         1 PRC      -0.029000
      7 C7          -0.9480     0.0360    -3.9190 cp         1 PRC       0.235500
      8 N8           0.2000     0.0130    -3.2650 nb         1 PRC      -0.259000
      9 C9           0.1610     0.0080    -1.9300 ca         1 PRC       0.393900
     10 N10         -0.9420     0.0290    -1.1900 nb         1 PRC      -0.234000
     11 C11         -2.0860     0.0620    -1.8560 ca         1 PRC       0.149900
     12 C12         -2.1640     0.0680    -3.2340 ca         1 PRC      -0.266000
     13 N13          1.3900    -0.0250    -1.3490 nu         1 PRC      -0.928900
     14 C14          1.8000    -0.0620    -0.0190 ca         1 PRC       0.350000
     15 C15          0.9210    -0.0120     1.0550 ca         1 PRC      -0.201000
     16 C16          1.3910    -0.0500     2.3680 ca         1 PRC       0.006000
     17 C17          2.7540    -0.1420     2.6170 ca         1 PRC      -0.158000
     18 C18          3.6160    -0.1870     1.5310 ca         1 PRC      -0.057000
     19 C19          3.1850    -0.1490     0.2160 ca         1 PRC      -0.156300
     20 C20          4.1750    -0.1960    -0.9120 c3         1 PRC      -0.045800
     21 N21          0.4090     0.0220     3.3630 ns         1 PRC      -0.144000
     22 C22          0.5470    -0.0440     4.7150 c          1 PRC       0.630700
     23 C23         -0.7270     0.1420     5.4740 ca         1 PRC      -0.212600
     24 C25         -0.8510    -0.4520     6.7260 ca         1 PRC      -0.022000
     25 C26         -2.0210    -0.2700     7.4390 ca         1 PRC      -0.171000
     26 C27         -3.0210     0.5170     6.8830 ca         1 PRC       0.355900
     27 N28         -2.9050     1.1150     5.7070 nb         1 PRC      -0.668000
     28 C29         -1.7840     0.9300     5.0270 ca         1 PRC       0.359900
     29 O29          1.5930    -0.2490     5.2930 o          1 PRC      -0.571100
     30 HC1          1.2170     0.7590    -7.9570 ha         1 PRC       0.127000
     31 HC2         -0.7940     0.0090    -9.1970 h4         1 PRC       0.021100
     32 HC4         -2.8510    -0.7290    -5.7350 h4         1 PRC       0.020100
     33 HC6          1.1550     0.7610    -5.4630 ha         1 PRC       0.138000
     34 H11C        -2.9870     0.0900    -1.2540 h4         1 PRC       0.024100
     35 H12C        -3.1180     0.1220    -3.7350 ha         1 PRC       0.139000
     36 H13N         2.1240    -0.0460    -2.0370 hn         1 PRC       0.512000
     37 H15C        -0.1390     0.0580     0.8650 ha         1 PRC       0.149000
     38 H17C         3.1460    -0.1810     3.6190 ha         1 PRC       0.150000
     39 H18C         4.6790    -0.2580     1.7230 ha         1 PRC       0.114000
     40 H201         4.0210    -1.0540    -1.5720 hc         1 PRC       0.041700
     41 H202         4.1460     0.7050    -1.5310 hc         1 PRC       0.041700
     42 H203         5.1900    -0.2760    -0.5270 hc         1 PRC       0.041700
     43 H21N        -0.5330     0.0690     3.0120 hn         1 PRC       0.156000
     44 H25C        -0.0410    -1.0470     7.1250 ha         1 PRC       0.141000
     45 H26C        -2.1600    -0.7240     8.4100 ha         1 PRC       0.130000
     46 H27C        -3.9520     0.6780     7.4150 h4         1 PRC       0.023100
     47 H29C        -1.7180     1.4710     4.0880 h4         1 PRC       0.021100
@<TRIPOS>BOND
     1     1     2 ar  
     2     1     6 ar  
     3     1    30 1   
     4     2     3 ar  
     5     2    31 1   
     6     3     4 ar  
     7     4     5 ar  
     8     4    32 1   
     9     5     6 ar  
    10     5     7 1   
    11     6    33 1   
    12     7     8 ar  
    13     7    12 ar  
    14     8     9 ar  
    15     9    10 ar  
    16     9    13 1   
    17    10    11 ar  
    18    11    12 ar  
    19    11    34 1   
    20    12    35 1   
    21    13    14 1   
    22    13    36 1   
    23    14    15 ar  
    24    14    19 ar  
    25    15    16 ar  
    26    15    37 1   
    27    16    17 ar  
    28    16    21 1   
    29    17    18 ar  
    30    17    38 1   
    31    18    19 ar  
    32    18    39 1   
    33    19    20 1   
    34    20    40 1   
    35    20    41 1   
    36    20    42 1   
    37    21    22 1   
    38    21    43 1   
    39    22    23 1   
    40    22    29 2   
    41    23    24 ar  
    42    23    28 ar  
    43    24    25 ar  
    44    24    44 1   
    45    25    26 ar  
    46    25    45 1   
    47    26    27 ar  
    48    26    46 1   
    49    27    28 ar  
    50    28    47 1   
@<TRIPOS>SUBSTRUCTURE
     1 PRC         1 TEMP              0 ****  ****    0 ROOT
