@<TRIPOS>MOLECULE
PRE
   24    24     1     0     0
SMALL
No Charge or Current Charge


@<TRIPOS>ATOM
      1 C1          -0.5850     0.1260     0.7000 c6         1 PRE      -0.152600
      2 C2          -0.3860     1.1930     1.7810 c2         1 PRE      -0.076200
      3 C3           0.4580     1.0370     2.8180 c2         1 PRE      -0.335700
      4 C4           1.2790    -0.2130     3.0330 c6         1 PRE       0.273700
      5 O4           2.5990     0.0190     2.5800 oh         1 PRE      -0.679000
      6 C5           0.7100    -1.3850     2.2690 c2         1 PRE      -0.335700
      7 C6          -0.1330    -1.2440     1.2300 c2         1 PRE      -0.076200
      8 C7          -2.0850     0.1230     0.2420 c          1 PRE       0.756000
      9 O71         -2.4450     0.9510    -0.5850 o          1 PRE      -0.725000
     10 O72         -2.8530    -0.6770     0.7600 o          1 PRE      -0.725000
     11 C8           0.3470     0.5200    -0.5060 c3         1 PRE      -0.138400
     12 C9           0.2430    -0.3120    -1.8110 c          1 PRE       0.441100
     13 O1          -0.2200    -1.4570    -1.8200 o          1 PRE      -0.549100
     14 C10          0.7870     0.4050    -3.1620 c          1 PRE       0.643000
     15 O'L          1.6810     1.2440    -3.0680 o          1 PRE      -0.727000
     16 O'M          0.3060     0.0700    -4.2430 o          1 PRE      -0.727000
     17 H2          -0.9640     2.1140     1.6700 ha         1 PRE       0.174000
     18 H3           0.5740     1.8220     3.5640 ha         1 PRE       0.134500
     19 H4           1.2890    -0.4580     4.1050 h1         1 PRE      -0.000300
     20 HO4          3.0110    -0.8670     2.5270 ho         1 PRE       0.406000
     21 H5           0.9970    -2.3760     2.6190 ha         1 PRE       0.134500
     22 H6          -0.5350    -2.1240     0.7220 ha         1 PRE       0.174000
     23 H81          0.2240     1.5730    -0.7850 hc         1 PRE       0.054200
     24 H82          1.4030     0.5090    -0.2120 hc         1 PRE       0.054200
@<TRIPOS>BOND
     1     1     2 1   
     2     1     7 1   
     3     1     8 1   
     4     1    11 1   
     5     2     3 2   
     6     2    17 1   
     7     3     4 1   
     8     3    18 1   
     9     4     5 1   
    10     4     6 1   
    11     4    19 1   
    12     5    20 1   
    13     6     7 2   
    14     6    21 1   
    15     7    22 1   
    16     8     9 1   
    17     8    10 1   
    18    11    12 1   
    19    11    23 1   
    20    11    24 1   
    21    12    13 2   
    22    12    14 1   
    23    14    15 1   
    24    14    16 1   
@<TRIPOS>SUBSTRUCTURE
     1 PRE         1 TEMP              0 ****  ****    0 ROOT
