@<TRIPOS>MOLECULE
PRE
   24    24     1     0     0
SMALL
bcc


@<TRIPOS>ATOM
      1 C1          -0.3490     0.1430     0.5750 c6         1 PRE      -0.152600
      2 C2          -0.0880     1.1990     1.6090 c2         1 PRE      -0.026200
      3 C3           0.5440     0.9990     2.7600 c2         1 PRE      -0.285700
      4 C4           1.0870    -0.3260     3.1880 c6         1 PRE       0.250500
      5 O4           2.4680    -0.1450     3.4900 oh         1 PRE      -0.616800
      6 C5           0.8820    -1.3730     2.1370 c2         1 PRE      -0.285700
      7 C6           0.2350    -1.1690     0.9950 c2         1 PRE      -0.026200
      8 C7          -1.9060     0.0560     0.4360 c          1 PRE       0.966600
      9 O71         -2.4460     0.9770    -0.2040 o          1 PRE      -0.830300
     10 O72         -2.4700    -0.8830     1.0220 o          1 PRE      -0.830300
     11 C8           0.2820     0.6290    -0.7370 c3         1 PRE      -0.138400
     12 C9          -0.0740    -0.1570    -1.9680 c          1 PRE       0.441100
     13 O1          -0.7790    -1.1390    -1.9420 o          1 PRE      -0.549100
     14 C10          0.5190     0.3440    -3.3200 c          1 PRE       0.853600
     15 O'L          1.3720     1.2440    -3.2350 o          1 PRE      -0.832300
     16 O'M          0.0800    -0.2120    -4.3360 o          1 PRE      -0.832300
     17 H2          -0.4560     2.1930     1.3730 ha         1 PRE       0.124000
     18 H3           0.6790     1.8250     3.4520 ha         1 PRE       0.084500
     19 H4           0.5620    -0.6380     4.1030 h1         1 PRE      -0.000300
     20 HO4          2.7790    -0.9370     3.9400 ho         1 PRE       0.367000
     21 H5           1.2780    -2.3610     2.3600 ha         1 PRE       0.084500
     22 H6           0.1280    -1.9930     0.3000 ha         1 PRE       0.124000
     23 H81          0.0030     1.6700    -0.9230 hc         1 PRE       0.054200
     24 H82          1.3730     0.6470    -0.6470 hc         1 PRE       0.054200
@<TRIPOS>BOND
     1     1     2 1   
     2     1     7 1   
     3     1     8 1   
     4     1    11 1   
     5     2     3 2   
     6     2    17 1   
     7     3     4 1   
     8     3    18 1   
     9     4     5 1   
    10     4     6 1   
    11     4    19 1   
    12     5    20 1   
    13     6     7 2   
    14     6    21 1   
    15     7    22 1   
    16     8     9 1   
    17     8    10 1   
    18    11    12 1   
    19    11    23 1   
    20    11    24 1   
    21    12    13 2   
    22    12    14 1   
    23    14    15 1   
    24    14    16 1   
@<TRIPOS>SUBSTRUCTURE
     1 PRE         1 TEMP              0 ****  ****    0 ROOT
