@<TRIPOS>MOLECULE
PRF
   22    23     1     0     0
SMALL
No Charge or Current Charge


@<TRIPOS>ATOM
      1 N1          17.0830    17.3950    23.6560 ns         1 PRF      -0.454400
      2 C2          15.7940    17.0220    23.5230 cc         1 PRF       0.717800
      3 N3          15.1510    16.7430    22.4110 nd         1 PRF      -0.710100
      4 C4          15.9520    16.8730    21.2860 cd         1 PRF       0.168400
      5 C5          17.2570    17.2470    21.3460 cc         1 PRF      -0.304600
      6 C6          17.9280    17.5400    22.6130 c          1 PRF       0.619600
      7 O6          19.0940    17.8720    22.7520 o          1 PRF      -0.559000
      8 C7          17.7840    17.2820    20.0270 cc         1 PRF      -0.067300
      9 C10         19.2130    17.6560    19.6910 c3         1 PRF       0.218100
     10 N11         19.4410    17.7770    18.2340 n8         1 PRF      -1.006200
     11 C8          16.7650    16.9160    19.1700 cd         1 PRF      -0.178000
     12 N9          15.6260    16.6640    19.9570 na         1 PRF      -0.120000
     13 N2          15.0990    16.9290    24.6430 nv         1 PRF      -1.032200
     14 H91         17.4630    17.5540    24.5730 hn         1 PRF       0.322500
     15 H101        19.4570    18.6170    20.1660 h1         1 PRF       0.049700
     16 H102        19.8930    16.8920    20.0960 h1         1 PRF       0.049700
     17 H111        20.3970    18.1180    18.0770 hn         1 PRF       0.393000
     18 H112        18.8490    18.5360    17.8780 hn         1 PRF       0.393000
     19 H81         16.7630    16.8160    18.0900 h4         1 PRF       0.160000
     20 HN91        14.7150    16.3760    19.6210 hn         1 PRF       0.359000
     21 HN21        14.1030    16.8330    24.4870 hn         1 PRF       0.490500
     22 HN22        15.3580    17.5490    25.3990 hn         1 PRF       0.490500
@<TRIPOS>BOND
     1     1     2 1   
     2     1     6 1   
     3     1    14 1   
     4     2     3 2   
     5     2    13 1   
     6     3     4 1   
     7     4     5 2   
     8     4    12 1   
     9     5     6 1   
    10     5     8 1   
    11     6     7 2   
    12     8     9 1   
    13     8    11 2   
    14     9    10 1   
    15     9    15 1   
    16     9    16 1   
    17    10    17 1   
    18    10    18 1   
    19    11    12 1   
    20    11    19 1   
    21    12    20 1   
    22    13    21 1   
    23    13    22 1   
@<TRIPOS>SUBSTRUCTURE
     1 PRF         1 TEMP              0 ****  ****    0 ROOT
