@<TRIPOS>MOLECULE
PRF
   22    23     1     0     0
SMALL
abcg2


@<TRIPOS>ATOM
      1 N1          17.0120    17.4060    23.6900 ns         1 PRF      -0.454400
      2 C2          15.7050    17.0240    23.5350 cc         1 PRF       0.717800
      3 N3          15.1710    16.7740    22.3630 nd         1 PRF      -0.710100
      4 C4          16.0250    16.9220    21.3220 cd         1 PRF       0.168400
      5 C5          17.3720    17.3110    21.3720 cc         1 PRF      -0.304600
      6 C6          17.9420    17.5790    22.6470 c          1 PRF       0.619600
      7 O6          19.0950    17.9250    22.9210 o          1 PRF      -0.559000
      8 C7          17.8710    17.3330    20.0230 cc         1 PRF      -0.067300
      9 C10         19.2570    17.7010    19.5930 c3         1 PRF       0.218100
     10 N11         19.3940    17.7000    18.1320 n8         1 PRF      -1.006200
     11 C8          16.8220    16.9650    19.2250 cd         1 PRF      -0.178000
     12 N9          15.7070    16.7150    20.0220 na         1 PRF      -0.120000
     13 N2          14.9740    16.8620    24.6680 nv         1 PRF      -1.032200
     14 H91         17.3690    17.5750    24.6210 hn         1 PRF       0.322500
     15 H101        19.5190    18.6650    20.0490 h1         1 PRF       0.049700
     16 H102        19.9680    16.9760    19.9990 h1         1 PRF       0.049700
     17 H111        20.3530    17.9230    17.8870 hn         1 PRF       0.393000
     18 H112        18.8230    18.4400    17.7360 hn         1 PRF       0.393000
     19 H81         16.7650    16.8550    18.1570 h4         1 PRF       0.160000
     20 HN91        14.7960    16.4450    19.6860 hn         1 PRF       0.359000
     21 HN21        13.9770    16.7800    24.5380 hn         1 PRF       0.490500
     22 HN22        15.2670    17.3310    25.5110 hn         1 PRF       0.490500
@<TRIPOS>BOND
     1     1     2 1   
     2     1     6 1   
     3     1    14 1   
     4     2     3 2   
     5     2    13 1   
     6     3     4 1   
     7     4     5 2   
     8     4    12 1   
     9     5     6 1   
    10     5     8 1   
    11     6     7 2   
    12     8     9 1   
    13     8    11 2   
    14     9    10 1   
    15     9    15 1   
    16     9    16 1   
    17    10    17 1   
    18    10    18 1   
    19    11    12 1   
    20    11    19 1   
    21    12    20 1   
    22    13    21 1   
    23    13    22 1   
@<TRIPOS>SUBSTRUCTURE
     1 PRF         1 TEMP              0 ****  ****    0 ROOT
