@<TRIPOS>MOLECULE
PRH
   34    36     1     0     0
SMALL
abcg2


@<TRIPOS>ATOM
      1 N1          -4.0380    -0.7990    -0.0910 nu         1 PRH      -0.935400
      2 C2          -3.1550    -1.6650     0.4260 c2         1 PRH       0.718100
      3 N3          -1.8870    -1.4550     0.5980 ne         1 PRH      -0.615100
      4 C4          -1.5290    -0.2180     0.1770 cc         1 PRH       0.172400
      5 C5          -2.3450     0.7620    -0.2920 cd         1 PRH      -0.274300
      6 C6          -3.8170     0.6220    -0.3270 c6         1 PRH       0.555800
      7 O6          -4.3720     1.4280     0.6690 oh         1 PRH      -0.652000
      8 N7          -1.5480     1.8300    -0.5970 na         1 PRH      -0.086700
      9 C8          -0.2910     1.5260    -0.3330 cc         1 PRH      -0.039300
     10 N9          -0.2470     0.2820     0.1400 na         1 PRH       0.053000
     11 C1           0.9680    -0.4440     0.4890 c5         1 PRH       0.303300
     12 C7           1.6150    -1.1300    -0.7140 c5         1 PRH       0.140300
     13 O2           0.9850    -2.3390    -0.9700 oh         1 PRH      -0.669000
     14 C3           3.0750    -1.1840    -0.2570 c5         1 PRH       0.108300
     15 O3           3.2120    -2.2660     0.6210 oh         1 PRH      -0.683000
     16 C9           3.2050     0.1720     0.4420 c5         1 PRH       0.124300
     17 O4           1.8950     0.4850     0.9400 os         1 PRH      -0.438000
     18 C10          3.6870     1.2620    -0.4940 c3         1 PRH       0.147600
     19 O5           3.6430     2.4900     0.1850 oh         1 PRH      -0.703000
     20 HN1         -4.9820    -1.1330    -0.2150 hn         1 PRH       0.515000
     21 H2          -3.5640    -2.6330     0.6890 h5         1 PRH       0.075800
     22 H6          -4.2420     0.8760    -1.3030 h2         1 PRH       0.071700
     23 HO6         -5.2820     1.6410     0.4360 ho         1 PRH       0.475000
     24 HN7         -1.8510     2.7280    -0.9490 hn         1 PRH       0.403000
     25 H8           0.5490     2.1870    -0.4650 h5         1 PRH       0.236000
     26 H1           0.6890    -1.1740     1.2550 h2         1 PRH       0.152700
     27 H7           1.5590    -0.4480    -1.5740 h1         1 PRH       0.037700
     28 HO2          1.3230    -2.6970    -1.7980 ho         1 PRH       0.531000
     29 H3           3.7630    -1.2560    -1.1090 h1         1 PRH       0.069700
     30 HO3          4.1200    -2.2880     0.9410 ho         1 PRH       0.525000
     31 H4           3.8820     0.1090     1.2990 h1         1 PRH       0.109700
     32 H5'1         3.0670     1.2790    -1.4010 h1         1 PRH       0.027200
     33 H5'2         4.7040     0.9960    -0.8110 h1         1 PRH       0.027200
     34 HO5          3.9140     3.1800    -0.4270 ho         1 PRH       0.518000
@<TRIPOS>BOND
     1     1     2 1   
     2     1     6 1   
     3     1    20 1   
     4     2     3 2   
     5     2    21 1   
     6     3     4 1   
     7     4     5 2   
     8     4    10 1   
     9     5     6 1   
    10     5     8 1   
    11     6     7 1   
    12     6    22 1   
    13     7    23 1   
    14     8     9 2   
    15     8    24 1   
    16     9    10 1   
    17     9    25 1   
    18    10    11 1   
    19    11    12 1   
    20    11    17 1   
    21    11    26 1   
    22    12    13 1   
    23    12    14 1   
    24    12    27 1   
    25    13    28 1   
    26    14    15 1   
    27    14    16 1   
    28    14    29 1   
    29    15    30 1   
    30    16    17 1   
    31    16    18 1   
    32    16    31 1   
    33    18    19 1   
    34    18    32 1   
    35    18    33 1   
    36    19    34 1   
@<TRIPOS>SUBSTRUCTURE
     1 PRH         1 TEMP              0 ****  ****    0 ROOT
