@<TRIPOS>MOLECULE
PRH
   34    36     1     0     0
SMALL
No Charge or Current Charge


@<TRIPOS>ATOM
      1 N1          -4.1670    -0.2920     0.7340 nu         1 PRH      -0.935400
      2 C2          -3.2770    -1.2970     1.1090 c2         1 PRH       0.718100
      3 N3          -2.0250    -1.2750     0.7590 ne         1 PRH      -0.615100
      4 C4          -1.5960    -0.2340    -0.0270 cc         1 PRH       0.172400
      5 C5          -2.4530     0.6860    -0.5550 cd         1 PRH      -0.274300
      6 C6          -3.9380     0.6390    -0.3370 c6         1 PRH       0.555800
      7 O6          -4.3750     1.8520     0.1810 oh         1 PRH      -0.652000
      8 N7          -1.6810     1.5610    -1.2920 na         1 PRH      -0.086700
      9 C8          -0.3550     1.1950    -1.2370 cc         1 PRH      -0.039300
     10 N9          -0.2920     0.0660    -0.4240 na         1 PRH       0.053000
     11 C1           0.9000    -0.7250    -0.1010 c5         1 PRH       0.303300
     12 C7           1.9460    -0.9490    -1.2490 c5         1 PRH       0.140300
     13 O2           1.6930    -2.1050    -2.0570 oh         1 PRH      -0.669000
     14 C3           3.2420    -1.1470    -0.4160 c5         1 PRH       0.108300
     15 O3           3.2850    -2.4770     0.1410 oh         1 PRH      -0.683000
     16 C9           3.0400    -0.0310     0.6630 c5         1 PRH       0.124300
     17 O4           1.6290    -0.1180     1.0040 os         1 PRH      -0.438000
     18 C10          3.3830     1.4070     0.1630 c3         1 PRH       0.147600
     19 O5           3.3690     2.3480     1.2500 oh         1 PRH      -0.703000
     20 HN1         -5.1400    -0.5170     0.9220 hn         1 PRH       0.515000
     21 H2          -3.6830    -2.0920     1.7400 h5         1 PRH       0.075800
     22 H6          -4.4900     0.3740    -1.2550 h2         1 PRH       0.071700
     23 HO6         -4.0160     1.8160     1.0890 ho         1 PRH       0.475000
     24 HN7         -2.0420     2.3630    -1.8060 hn         1 PRH       0.403000
     25 H8           0.4750     1.6980    -1.7230 h5         1 PRH       0.236000
     26 H1           0.5230    -1.7020     0.2260 h2         1 PRH       0.152700
     27 H7           2.0280    -0.0590    -1.8880 h1         1 PRH       0.037700
     28 HO2          2.1700    -2.8350    -1.5860 ho         1 PRH       0.531000
     29 H3           4.1390    -0.9570    -1.0240 h1         1 PRH       0.069700
     30 HO3          4.1250    -2.5640     0.6530 ho         1 PRH       0.525000
     31 H4           3.6440    -0.2300     1.5580 h1         1 PRH       0.109700
     32 H5'1         2.6690     1.7110    -0.6130 h1         1 PRH       0.027200
     33 H5'2         4.3810     1.3850    -0.2960 h1         1 PRH       0.027200
     34 HO5          3.5930     3.2330     0.8740 ho         1 PRH       0.518000
@<TRIPOS>BOND
     1     1     2 1   
     2     1     6 1   
     3     1    20 1   
     4     2     3 2   
     5     2    21 1   
     6     3     4 1   
     7     4     5 2   
     8     4    10 1   
     9     5     6 1   
    10     5     8 1   
    11     6     7 1   
    12     6    22 1   
    13     7    23 1   
    14     8     9 2   
    15     8    24 1   
    16     9    10 1   
    17     9    25 1   
    18    10    11 1   
    19    11    12 1   
    20    11    17 1   
    21    11    26 1   
    22    12    13 1   
    23    12    14 1   
    24    12    27 1   
    25    13    28 1   
    26    14    15 1   
    27    14    16 1   
    28    14    29 1   
    29    15    30 1   
    30    16    17 1   
    31    16    18 1   
    32    16    31 1   
    33    18    19 1   
    34    18    32 1   
    35    18    33 1   
    36    19    34 1   
@<TRIPOS>SUBSTRUCTURE
     1 PRH         1 TEMP              0 ****  ****    0 ROOT
