@<TRIPOS>MOLECULE
PRI
   16    16     1     0     0
SMALL
No Charge or Current Charge


@<TRIPOS>ATOM
      1 CB           1.2650     0.0820     0.6640 c5         1 PRI      -0.068400
      2 CG           0.4890    -0.4950     1.8900 c5         1 PRI      -0.079400
      3 C            0.4660     0.0580    -1.7830 c          1 PRI       0.576900
      4 OT1         -0.2640    -0.6020    -2.5210 o          1 PRI      -0.493100
      5 N           -1.1320     0.0150     0.2940 n7         1 PRI      -0.842400
      6 CD          -0.9030     0.1580     1.7410 c5         1 PRI       0.152800
      7 CA           0.1340     0.5360    -0.3210 c5         1 PRI       0.039500
      8 HCB1         1.9290    -0.6750     0.2310 hc         1 PRI       0.049700
      9 HCB2         1.8950     0.9320     0.9500 hc         1 PRI       0.049700
     10 HCG1         0.4150    -1.5870     1.8320 hc         1 PRI       0.050200
     11 HCG2         0.9660    -0.2500     2.8460 hc         1 PRI       0.050200
     12 HO'T         1.4570     0.4040    -2.1520 h4         1 PRI      -0.017800
     13 HN          -1.9470     0.5680    -0.0080 hn         1 PRI       0.423000
     14 HCD1        -1.6740    -0.3530     2.3350 h1         1 PRI       0.036200
     15 HCD2        -0.8820     1.2180     2.0340 h1         1 PRI       0.036200
     16 HCA          0.1040     1.6350    -0.3440 h1         1 PRI       0.035700
@<TRIPOS>BOND
     1     1     2 1   
     2     1     7 1   
     3     1     8 1   
     4     1     9 1   
     5     2     6 1   
     6     2    10 1   
     7     2    11 1   
     8     3     4 2   
     9     3     7 1   
    10     3    12 1   
    11     5     6 1   
    12     5     7 1   
    13     5    13 1   
    14     6    14 1   
    15     6    15 1   
    16     7    16 1   
@<TRIPOS>SUBSTRUCTURE
     1 PRI         1 TEMP              0 ****  ****    0 ROOT
