@<TRIPOS>MOLECULE
PRI
   16    16     1     0     0
SMALL
bcc


@<TRIPOS>ATOM
      1 CB           1.2640    -0.0450     0.6320 c5         1 PRI      -0.068400
      2 CG           0.5050    -0.3770     1.9330 c5         1 PRI      -0.079400
      3 C            0.4210     0.1850    -1.7290 c          1 PRI       0.576900
      4 OT1         -0.3170    -0.4610    -2.4290 o          1 PRI      -0.493100
      5 N           -1.0550    -0.0130     0.2370 n7         1 PRI      -0.787200
      6 CD          -0.9240     0.1050     1.6800 c5         1 PRI       0.152800
      7 CA           0.1700     0.5330    -0.2960 c5         1 PRI       0.039500
      8 HCB1         1.7080    -0.9460     0.2050 hc         1 PRI       0.049700
      9 HCB2         2.0680     0.6720     0.7800 hc         1 PRI       0.049700
     10 HCG1         0.5200    -1.4520     2.1150 hc         1 PRI       0.050200
     11 HCG2         0.9450     0.1070     2.8040 hc         1 PRI       0.050200
     12 HO'T         1.3750     0.5840    -2.1210 h4         1 PRI      -0.017800
     13 HN          -1.8710     0.4720    -0.1140 hn         1 PRI       0.367800
     14 HCD1        -1.6740    -0.4980     2.1940 h1         1 PRI       0.036200
     15 HCD2        -1.0380     1.1410     2.0330 h1         1 PRI       0.036200
     16 HCA          0.2230     1.6350    -0.2360 h1         1 PRI       0.035700
@<TRIPOS>BOND
     1     1     2 1   
     2     1     7 1   
     3     1     8 1   
     4     1     9 1   
     5     2     6 1   
     6     2    10 1   
     7     2    11 1   
     8     3     4 2   
     9     3     7 1   
    10     3    12 1   
    11     5     6 1   
    12     5     7 1   
    13     5    13 1   
    14     6    14 1   
    15     6    15 1   
    16     7    16 1   
@<TRIPOS>SUBSTRUCTURE
     1 PRI         1 TEMP              0 ****  ****    0 ROOT
