@<TRIPOS>MOLECULE
PRK
   31    30     1     0     0
SMALL
No Charge or Current Charge


@<TRIPOS>ATOM
      1 C           -3.9850    -9.9560    -6.5510 c          1 PRK       0.929600
      2 N           -2.0740   -10.1580    -4.7270 n8         1 PRK      -0.893800
      3 O           -4.0140    -8.9150    -7.2030 o          1 PRK      -0.837300
      4 CA          -3.5370    -9.9180    -5.0160 c3         1 PRK       0.024500
      5 CB          -4.0270    -8.6260    -4.3010 c3         1 PRK      -0.048400
      6 CD          -4.5120    -7.4080    -2.0790 c3         1 PRK      -0.098400
      7 CE          -4.4400    -7.4660    -0.5400 c3         1 PRK       0.099000
      8 CG          -3.9530    -8.6800    -2.7550 c3         1 PRK      -0.075400
      9 NZ          -4.9990    -6.2660     0.0850 ns         1 PRK      -0.570900
     10 CAA         -4.6810    -3.6370     2.2930 c3         1 PRK      -0.092100
     11 OAD         -3.2040    -4.8910    -0.2030 o          1 PRK      -0.611100
     12 CAF         -5.1620    -3.9400     0.8570 c3         1 PRK      -0.168400
     13 CAL         -4.3450    -5.0600     0.2050 c          1 PRK       0.664100
     14 OXT         -4.2870   -11.0400    -7.0430 o          1 PRK      -0.837300
     15 H           -1.9340   -10.1920    -3.7120 hn         1 PRK       0.325800
     16 H2          -1.8150   -11.0950    -5.0550 hn         1 PRK       0.325800
     17 HA          -4.0650   -10.7530    -4.5340 h1         1 PRK      -0.008300
     18 HB2         -3.4520    -7.7660    -4.6660 hc         1 PRK       0.046200
     19 HB3         -5.0710    -8.4480    -4.5870 hc         1 PRK       0.046200
     20 HD2         -5.5560    -7.2660    -2.3830 hc         1 PRK       0.044200
     21 HD3         -3.9510    -6.5350    -2.4350 hc         1 PRK       0.044200
     22 HE2         -5.0030    -8.3380    -0.1810 h1         1 PRK       0.046700
     23 HE3         -3.3950    -7.5850    -0.2210 h1         1 PRK       0.046700
     24 HG2         -4.5150    -9.5510    -2.3970 hc         1 PRK       0.027700
     25 HG3         -2.9120    -8.8180    -2.4390 hc         1 PRK       0.027700
     26 HZ          -5.9430    -6.3060     0.4510 hn         1 PRK       0.306500
     27 HAA         -5.2810    -2.8340     2.7370 hc         1 PRK       0.034367
     28 HAAA        -4.7750    -4.5270     2.9290 hc         1 PRK       0.034367
     29 HAAB        -3.6310    -3.3210     2.2940 hc         1 PRK       0.034367
     30 HAF         -6.2200    -4.2250     0.9020 hc         1 PRK       0.066200
     31 HAFA        -5.0490    -3.0300     0.2570 hc         1 PRK       0.066200
@<TRIPOS>BOND
     1     1     3 1   
     2     1     4 1   
     3     1    14 1   
     4     2     4 1   
     5     2    15 1   
     6     2    16 1   
     7     4     5 1   
     8     4    17 1   
     9     5     8 1   
    10     5    18 1   
    11     5    19 1   
    12     6     7 1   
    13     6     8 1   
    14     6    20 1   
    15     6    21 1   
    16     7     9 1   
    17     7    22 1   
    18     7    23 1   
    19     8    24 1   
    20     8    25 1   
    21     9    13 1   
    22     9    26 1   
    23    10    12 1   
    24    10    27 1   
    25    10    28 1   
    26    10    29 1   
    27    11    13 2   
    28    12    13 1   
    29    12    30 1   
    30    12    31 1   
@<TRIPOS>SUBSTRUCTURE
     1 PRK         1 TEMP              0 ****  ****    0 ROOT
