@<TRIPOS>MOLECULE
PRK
   31    30     1     0     0
SMALL
bcc


@<TRIPOS>ATOM
      1 C           -4.3060   -10.1200    -6.2310 c          1 PRK       0.929600
      2 N           -2.3020   -10.0280    -4.7740 n8         1 PRK      -0.893800
      3 O           -5.5080    -9.8380    -6.4010 o          1 PRK      -0.837300
      4 CA          -3.7580    -9.9750    -4.7870 c3         1 PRK       0.024500
      5 CB          -4.2520    -8.6980    -4.1100 c3         1 PRK      -0.048400
      6 CD          -4.3590    -7.3390    -1.9660 c3         1 PRK      -0.098400
      7 CE          -3.9080    -7.2570    -0.5120 c3         1 PRK       0.099000
      8 CG          -3.8130    -8.5820    -2.6560 c3         1 PRK      -0.075400
      9 NZ          -4.4140    -6.0980     0.1910 ns         1 PRK      -0.570900
     10 CAA         -5.7400    -4.0930     1.7180 c3         1 PRK      -0.092100
     11 OAD         -2.8050    -4.6830    -0.5020 o          1 PRK      -0.611100
     12 CAF         -4.5050    -3.7630     0.8940 c3         1 PRK      -0.168400
     13 CAL         -3.8340    -4.8890     0.1310 c          1 PRK       0.664100
     14 OXT         -3.5140   -10.5470    -7.0970 o          1 PRK      -0.837300
     15 H           -1.9740   -10.4190    -3.9020 hn         1 PRK       0.325800
     16 H2          -2.0100   -10.6590    -5.5090 hn         1 PRK       0.325800
     17 HA          -4.1990   -10.8210    -4.2280 h1         1 PRK      -0.008300
     18 HB2         -3.8880    -7.8290    -4.6700 hc         1 PRK       0.046200
     19 HB3         -5.3420    -8.6710    -4.1590 hc         1 PRK       0.046200
     20 HD2         -5.4530    -7.3430    -2.0070 hc         1 PRK       0.044200
     21 HD3         -4.0280    -6.4440    -2.4990 hc         1 PRK       0.044200
     22 HE2         -4.2470    -8.1410     0.0300 h1         1 PRK       0.046700
     23 HE3         -2.8180    -7.2550    -0.4610 h1         1 PRK       0.046700
     24 HG2         -4.1410    -9.4740    -2.1090 hc         1 PRK       0.027700
     25 HG3         -2.7200    -8.5710    -2.5980 hc         1 PRK       0.027700
     26 HZ          -5.2820    -6.2030     0.6890 hn         1 PRK       0.306500
     27 HAA         -6.1000    -3.1970     2.2210 hc         1 PRK       0.034367
     28 HAAA        -6.5600    -4.4640     1.1010 hc         1 PRK       0.034367
     29 HAAB        -5.5300    -4.8340     2.4910 hc         1 PRK       0.034367
     30 HAF         -4.7440    -2.9910     0.1580 hc         1 PRK       0.066200
     31 HAFA        -3.7360    -3.3240     1.5350 hc         1 PRK       0.066200
@<TRIPOS>BOND
     1     1     3 1   
     2     1     4 1   
     3     1    14 1   
     4     2     4 1   
     5     2    15 1   
     6     2    16 1   
     7     4     5 1   
     8     4    17 1   
     9     5     8 1   
    10     5    18 1   
    11     5    19 1   
    12     6     7 1   
    13     6     8 1   
    14     6    20 1   
    15     6    21 1   
    16     7     9 1   
    17     7    22 1   
    18     7    23 1   
    19     8    24 1   
    20     8    25 1   
    21     9    13 1   
    22     9    26 1   
    23    10    12 1   
    24    10    27 1   
    25    10    28 1   
    26    10    29 1   
    27    11    13 2   
    28    12    13 1   
    29    12    30 1   
    30    12    31 1   
@<TRIPOS>SUBSTRUCTURE
     1 PRK         1 TEMP              0 ****  ****    0 ROOT
