@<TRIPOS>MOLECULE
PRL
   27    29     1     0     0
SMALL
No Charge or Current Charge


@<TRIPOS>ATOM
      1 C1           1.6460     0.0020     2.4360 ca         1 PRL      -0.049000
      2 C2           0.9130     0.0050     3.6330 ca         1 PRL      -0.162000
      3 C3          -0.4870     0.0210     3.5970 ca         1 PRL       0.323000
      4 C4          -1.1600     0.0350     2.3710 ca         1 PRL      -0.209000
      5 C5          -1.1490     0.0560    -2.3850 ca         1 PRL      -0.209000
      6 C6          -0.4710     0.0530    -3.6070 ca         1 PRL       0.323000
      7 C7           0.9290     0.0370    -3.6370 ca         1 PRL      -0.162000
      8 C8           1.6570     0.0230    -2.4370 ca         1 PRL      -0.049000
      9 C9           1.6880     0.0120    -0.0000 ca         1 PRL      -0.014000
     10 N10         -1.1260     0.0450    -0.0070 nb         1 PRL      -0.700000
     11 C11         -0.4470     0.0320     1.1630 ca         1 PRL       0.354500
     12 C12          0.9730     0.0250    -1.2080 ca         1 PRL      -0.141000
     13 C13          0.9680     0.0150     1.2040 ca         1 PRL      -0.141000
     14 C14         -0.4420     0.0420    -1.1730 ca         1 PRL       0.354500
     15 N15         -1.2010     0.0240     4.7640 nv         1 PRL      -1.090000
     16 N16         -1.1790     0.0660    -4.7770 nv         1 PRL      -1.090000
     17 H1           2.7340    -0.0110     2.4690 ha         1 PRL       0.111000
     18 H2           1.4360    -0.0040     4.5850 ha         1 PRL       0.112000
     19 H4          -2.2440     0.0480     2.3480 ha         1 PRL       0.129000
     20 H5          -2.2330     0.0690    -2.3660 ha         1 PRL       0.129000
     21 H7           1.4570     0.0360    -4.5860 ha         1 PRL       0.112000
     22 H8           2.7450     0.0110    -2.4650 ha         1 PRL       0.111000
     23 H9           2.7770    -0.0010     0.0020 ha         1 PRL       0.112000
     24 HNF1        -0.7230    -0.1410     5.6480 hn         1 PRL       0.461250
     25 HNF2        -2.2090    -0.1220     4.7430 hn         1 PRL       0.461250
     26 HNG1        -0.6970    -0.0910    -5.6610 hn         1 PRL       0.461250
     27 HNG2        -2.1880    -0.0790    -4.7620 hn         1 PRL       0.461250
@<TRIPOS>BOND
     1     1     2 ar  
     2     1    13 ar  
     3     1    17 1   
     4     2     3 ar  
     5     2    18 1   
     6     3     4 ar  
     7     3    15 1   
     8     4    11 ar  
     9     4    19 1   
    10     5     6 ar  
    11     5    14 ar  
    12     5    20 1   
    13     6     7 ar  
    14     6    16 1   
    15     7     8 ar  
    16     7    21 1   
    17     8    12 ar  
    18     8    22 1   
    19     9    12 ar  
    20     9    13 ar  
    21     9    23 1   
    22    10    11 ar  
    23    10    14 ar  
    24    11    13 ar  
    25    12    14 ar  
    26    15    24 1   
    27    15    25 1   
    28    16    26 1   
    29    16    27 1   
@<TRIPOS>SUBSTRUCTURE
     1 PRL         1 TEMP              0 ****  ****    0 ROOT
