@<TRIPOS>MOLECULE
PRL
   27    29     1     0     0
SMALL
abcg2


@<TRIPOS>ATOM
      1 C1           1.6350     0.0010     2.4680 ca         1 PRL      -0.049000
      2 C2           0.9150     0.0070     3.6180 ca         1 PRL      -0.162000
      3 C3          -0.5170     0.0310     3.5830 ca         1 PRL       0.323000
      4 C4          -1.1620     0.0410     2.3640 ca         1 PRL      -0.209000
      5 C5          -1.1510     0.0620    -2.3770 ca         1 PRL      -0.209000
      6 C6          -0.5010     0.0630    -3.5930 ca         1 PRL       0.323000
      7 C7           0.9310     0.0410    -3.6220 ca         1 PRL      -0.162000
      8 C8           1.6450     0.0250    -2.4690 ca         1 PRL      -0.049000
      9 C9           1.6900     0.0160    -0.0000 ca         1 PRL      -0.014000
     10 N10         -1.1110     0.0540    -0.0060 nb         1 PRL      -0.700000
     11 C11         -0.4390     0.0400     1.1480 ca         1 PRL       0.354500
     12 C12          0.9990     0.0310    -1.2030 ca         1 PRL      -0.141000
     13 C13          0.9930     0.0200     1.2000 ca         1 PRL      -0.141000
     14 C14         -0.4330     0.0510    -1.1580 ca         1 PRL       0.354500
     15 N15         -1.1960     0.0900     4.7660 nv         1 PRL      -1.090000
     16 N16         -1.1740     0.1310    -4.7790 nv         1 PRL      -1.090000
     17 H1           2.7170    -0.0160     2.5070 ha         1 PRL       0.111000
     18 H2           1.4180    -0.0030     4.5770 ha         1 PRL       0.112000
     19 H4          -2.2450     0.0520     2.3170 ha         1 PRL       0.129000
     20 H5          -2.2340     0.0730    -2.3350 ha         1 PRL       0.129000
     21 H7           1.4390     0.0400    -4.5790 ha         1 PRL       0.112000
     22 H8           2.7280     0.0080    -2.5030 ha         1 PRL       0.111000
     23 H9           2.7750     0.0010     0.0020 ha         1 PRL       0.112000
     24 HNF1        -0.7240    -0.2420     5.5900 hn         1 PRL       0.461250
     25 HNF2        -2.1780    -0.1280     4.7490 hn         1 PRL       0.461250
     26 HNG1        -0.6980    -0.1930    -5.6040 hn         1 PRL       0.461250
     27 HNG2        -2.1560    -0.0890    -4.7680 hn         1 PRL       0.461250
@<TRIPOS>BOND
     1     1     2 ar  
     2     1    13 ar  
     3     1    17 1   
     4     2     3 ar  
     5     2    18 1   
     6     3     4 ar  
     7     3    15 1   
     8     4    11 ar  
     9     4    19 1   
    10     5     6 ar  
    11     5    14 ar  
    12     5    20 1   
    13     6     7 ar  
    14     6    16 1   
    15     7     8 ar  
    16     7    21 1   
    17     8    12 ar  
    18     8    22 1   
    19     9    12 ar  
    20     9    13 ar  
    21     9    23 1   
    22    10    11 ar  
    23    10    14 ar  
    24    11    13 ar  
    25    12    14 ar  
    26    15    24 1   
    27    15    25 1   
    28    16    26 1   
    29    16    27 1   
@<TRIPOS>SUBSTRUCTURE
     1 PRL         1 TEMP              0 ****  ****    0 ROOT
