@<TRIPOS>MOLECULE
PRM
   65    68     1     0     0
SMALL
No Charge or Current Charge


@<TRIPOS>ATOM
      1 C16         -4.7880     0.7120    -0.0070 ca         1 PRM      -0.088000
      2 C17         -3.3700     0.7590     0.0650 ca         1 PRM       0.030000
      3 C18         -2.6590    -0.4710     0.0410 ca         1 PRM      -0.065000
      4 C19         -3.3700    -1.6920    -0.0800 ca         1 PRM      -0.173000
      5 C20         -4.7640    -1.7140    -0.1540 ca         1 PRM       0.332000
      6 C21         -5.4710    -0.5100    -0.1120 ca         1 PRM      -0.073000
      7 C22         -1.2420    -0.4840     0.1370 cp         1 PRM       0.115000
      8 N23         -0.5450     0.7460     0.3600 na         1 PRM       0.029300
      9 C24         -1.2240     1.9690     0.2180 ca         1 PRM       0.041700
     10 C25         -2.6440     1.9900     0.1140 ca         1 PRM      -0.072000
     11 C26         -0.5040     3.1910     0.1800 ca         1 PRM      -0.271000
     12 C27         -1.1660     4.4130     0.0840 ca         1 PRM       0.390000
     13 C28         -2.5560     4.4450     0.0180 ca         1 PRM      -0.145000
     14 C29         -3.2920     3.2520     0.0270 ca         1 PRM      -0.022000
     15 C30         -0.4850    -1.7730     0.0440 cp         1 PRM      -0.140000
     16 C31         -0.0150    -2.2410    -1.2060 ca         1 PRM      -0.089000
     17 C32          0.6900    -3.4520    -1.3030 ca         1 PRM      -0.103000
     18 C33          0.9300    -4.2200    -0.1500 ca         1 PRM      -0.068000
     19 C34          0.4610    -3.7750     1.0980 ca         1 PRM      -0.103000
     20 C35         -0.2440    -2.5630     1.1940 ca         1 PRM      -0.089000
     21 N36         -5.4240    -2.9120    -0.2630 nv         1 PRM      -1.061000
     22 N37         -0.4410     5.5680     0.0580 nv         1 PRM      -1.076000
     23 C41          0.8210     0.6900     0.9440 c3         1 PRM       0.037600
     24 C42          1.9450     0.6130    -0.1140 c3         1 PRM      -0.117400
     25 C43          3.3380     0.4490     0.5270 c3         1 PRM       0.094600
     26 N44          4.5250     0.1720    -0.4130 n4         1 PRM      -0.503000
     27 C44          5.7990     0.0780     0.4490 c3         1 PRM       0.103600
     28 C45          7.1310    -0.2040    -0.2730 c3         1 PRM      -0.126100
     29 C46          4.6700     1.3380    -1.4070 c3         1 PRM       0.071900
     30 C47          4.3060    -1.1340    -1.2040 c3         1 PRM       0.103600
     31 C48          4.0980    -2.4260    -0.3910 c3         1 PRM      -0.126100
     32 H16         -5.4010     1.6040     0.0180 ha         1 PRM       0.143000
     33 H19         -2.8420    -2.6400    -0.1110 ha         1 PRM       0.140000
     34 H21         -6.5560    -0.5170    -0.1660 ha         1 PRM       0.148000
     35 H26          0.5790     3.2050     0.2200 ha         1 PRM       0.111000
     36 H28         -3.0740     5.3970    -0.0590 ha         1 PRM       0.151000
     37 H29         -4.3670     3.3500    -0.0550 ha         1 PRM       0.146000
     38 H31         -0.2000    -1.6550    -2.1050 ha         1 PRM       0.129000
     39 H32          1.0490    -3.7970    -2.2700 ha         1 PRM       0.142000
     40 H33          1.4750    -5.1590    -0.2240 ha         1 PRM       0.145000
     41 H34          0.6430    -4.3710     1.9900 ha         1 PRM       0.142000
     42 H35         -0.6090    -2.2310     2.1640 ha         1 PRM       0.129000
     43 H361        -6.4370    -2.9480    -0.1590 hn         1 PRM       0.484500
     44 H362        -4.9160    -3.7860    -0.1400 hn         1 PRM       0.484500
     45 H371         0.5480     5.5360     0.2970 hn         1 PRM       0.493000
     46 H372        -0.9130     6.4610     0.1880 hn         1 PRM       0.493000
     47 H411         0.8880    -0.1860     1.6010 h1         1 PRM       0.095200
     48 H412         0.9780     1.5580     1.5960 h1         1 PRM       0.095200
     49 H421         1.9280     1.5130    -0.7390 hc         1 PRM       0.082700
     50 H422         1.7520    -0.2350    -0.7770 hc         1 PRM       0.082700
     51 H431         3.2950    -0.3780     1.2390 hx         1 PRM       0.095700
     52 H432         3.5700     1.3560     1.0910 hx         1 PRM       0.095700
     53 H441         5.6340    -0.7080     1.1890 hx         1 PRM       0.093450
     54 H442         5.8940     1.0230     0.9900 hx         1 PRM       0.093450
     55 H451         7.1010    -1.1660    -0.7960 hc         1 PRM       0.077867
     56 H452         7.3620     0.5830    -0.9980 hc         1 PRM       0.077867
     57 H453         7.9500    -0.2420     0.4560 hc         1 PRM       0.077867
     58 H461         5.5220     1.1510    -2.0630 hx         1 PRM       0.098033
     59 H462         3.7620     1.4190    -2.0070 hx         1 PRM       0.098033
     60 H463         4.8300     2.2660    -0.8540 hx         1 PRM       0.098033
     61 H471         3.4340    -0.9860    -1.8460 hx         1 PRM       0.093450
     62 H472         5.1700    -1.2690    -1.8570 hx         1 PRM       0.093450
     63 H481         3.9540    -3.2760    -1.0680 hc         1 PRM       0.077867
     64 H482         4.9680    -2.6390     0.2400 hc         1 PRM       0.077867
     65 H483         3.2120    -2.3500     0.2490 hc         1 PRM       0.077867
@<TRIPOS>BOND
     1     1     2 ar  
     2     1     6 ar  
     3     1    32 1   
     4     2     3 ar  
     5     2    10 ar  
     6     3     4 ar  
     7     3     7 ar  
     8     4     5 ar  
     9     4    33 1   
    10     5     6 ar  
    11     5    21 1   
    12     6    34 1   
    13     7     8 1   
    14     7    15 1   
    15     8     9 2   
    16     8    23 1   
    17     9    10 ar  
    18     9    11 ar  
    19    10    14 ar  
    20    11    12 ar  
    21    11    35 1   
    22    12    13 ar  
    23    12    22 1   
    24    13    14 ar  
    25    13    36 1   
    26    14    37 1   
    27    15    16 ar  
    28    15    20 ar  
    29    16    17 ar  
    30    16    38 1   
    31    17    18 ar  
    32    17    39 1   
    33    18    19 ar  
    34    18    40 1   
    35    19    20 ar  
    36    19    41 1   
    37    20    42 1   
    38    21    43 1   
    39    21    44 1   
    40    22    45 1   
    41    22    46 1   
    42    23    24 1   
    43    23    47 1   
    44    23    48 1   
    45    24    25 1   
    46    24    49 1   
    47    24    50 1   
    48    25    26 1   
    49    25    51 1   
    50    25    52 1   
    51    26    27 1   
    52    26    29 1   
    53    26    30 1   
    54    27    28 1   
    55    27    53 1   
    56    27    54 1   
    57    28    55 1   
    58    28    56 1   
    59    28    57 1   
    60    29    58 1   
    61    29    59 1   
    62    29    60 1   
    63    30    31 1   
    64    30    61 1   
    65    30    62 1   
    66    31    63 1   
    67    31    64 1   
    68    31    65 1   
@<TRIPOS>SUBSTRUCTURE
     1 PRM         1 TEMP              0 ****  ****    0 ROOT
