@<TRIPOS>MOLECULE
PRM
   65    68     1     0     0
SMALL
abcg2


@<TRIPOS>ATOM
      1 C16         -4.5660     0.7500    -0.4990 ca         1 PRM      -0.088000
      2 C17         -3.1980     0.7230    -0.1600 ca         1 PRM       0.030000
      3 C18         -2.5960    -0.5440    -0.0040 ca         1 PRM      -0.065000
      4 C19         -3.3360    -1.7310    -0.1910 ca         1 PRM      -0.173000
      5 C20         -4.6740    -1.6810    -0.5270 ca         1 PRM       0.332000
      6 C21         -5.2740    -0.4030    -0.6740 ca         1 PRM      -0.073000
      7 C22         -1.2310    -0.6060     0.3600 cp         1 PRM       0.115000
      8 N23         -0.5170     0.4970     0.5620 na         1 PRM       0.029300
      9 C24         -1.0480     1.7750     0.3810 ca         1 PRM       0.041700
     10 C25         -2.4050     1.8920     0.0240 ca         1 PRM      -0.072000
     11 C26         -0.2500     2.9090     0.5540 ca         1 PRM      -0.271000
     12 C27         -0.7770     4.1830     0.3790 ca         1 PRM       0.390000
     13 C28         -2.1430     4.3050     0.0290 ca         1 PRM      -0.145000
     14 C29         -2.9170     3.1970    -0.1390 ca         1 PRM      -0.022000
     15 C30         -0.5790    -1.9280     0.5150 cp         1 PRM      -0.140000
     16 C31          0.0430    -2.5160    -0.5820 ca         1 PRM      -0.089000
     17 C32          0.6400    -3.7620    -0.4480 ca         1 PRM      -0.103000
     18 C33          0.6080    -4.4210     0.7730 ca         1 PRM      -0.068000
     19 C34         -0.0290    -3.8390     1.8610 ca         1 PRM      -0.103000
     20 C35         -0.6270    -2.5940     1.7360 ca         1 PRM      -0.089000
     21 N36         -5.4120    -2.8040    -0.7650 nv         1 PRM      -1.061000
     22 N37         -0.0040     5.2900     0.4960 nv         1 PRM      -1.076000
     23 C41          0.8850     0.3820     0.9910 c3         1 PRM       0.037600
     24 C42          1.8570     0.4790    -0.1790 c3         1 PRM      -0.117400
     25 C43          3.2640     0.4310     0.3890 c3         1 PRM       0.094600
     26 N44          4.3660     0.3650    -0.6300 n4         1 PRM      -0.503000
     27 C44          5.6600     0.3040     0.1510 c3         1 PRM       0.103600
     28 C45          6.9180     0.1770    -0.6780 c3         1 PRM      -0.126100
     29 C46          4.3450     1.5960    -1.4680 c3         1 PRM       0.071900
     30 C47          4.2170    -0.8280    -1.5380 c3         1 PRM       0.103600
     31 C48          4.1920    -2.1650    -0.8340 c3         1 PRM      -0.126100
     32 H16         -5.0840     1.6900    -0.6280 ha         1 PRM       0.143000
     33 H19         -2.8550    -2.6910    -0.0640 ha         1 PRM       0.140000
     34 H21         -6.3240    -0.3430    -0.9320 ha         1 PRM       0.148000
     35 H26          0.7930     2.8350     0.8180 ha         1 PRM       0.111000
     36 H28         -2.5730     5.2890    -0.1080 ha         1 PRM       0.151000
     37 H29         -3.9550     3.3370    -0.4030 ha         1 PRM       0.146000
     38 H31          0.0500    -2.0130    -1.5410 ha         1 PRM       0.129000
     39 H32          1.1280    -4.2140    -1.3010 ha         1 PRM       0.142000
     40 H33          1.0740    -5.3910     0.8760 ha         1 PRM       0.145000
     41 H34         -0.0610    -4.3540     2.8120 ha         1 PRM       0.142000
     42 H35         -1.1210    -2.1370     2.5840 ha         1 PRM       0.129000
     43 H361        -6.4120    -2.7240    -0.6740 hn         1 PRM       0.484500
     44 H362        -5.0520    -3.6760    -0.4140 hn         1 PRM       0.484500
     45 H371         0.8860     5.2170     0.9590 hn         1 PRM       0.493000
     46 H372        -0.4560     6.1830     0.5940 hn         1 PRM       0.493000
     47 H411         1.0090    -0.5670     1.5030 h1         1 PRM       0.095200
     48 H412         1.0690     1.1470     1.7410 h1         1 PRM       0.095200
     49 H421         1.6890     1.3970    -0.7440 hc         1 PRM       0.082700
     50 H422         1.6740    -0.3510    -0.8620 hc         1 PRM       0.082700
     51 H431         3.3830    -0.4330     1.0420 hx         1 PRM       0.095700
     52 H432         3.4570     1.3170     0.9940 hx         1 PRM       0.095700
     53 H441         5.5700    -0.5370     0.8360 hx         1 PRM       0.093450
     54 H442         5.6880     1.2140     0.7490 hx         1 PRM       0.093450
     55 H451         6.9710    -0.7560    -1.2360 hc         1 PRM       0.077867
     56 H452         7.0670     1.0080    -1.3660 hc         1 PRM       0.077867
     57 H453         7.7580     0.1820     0.0160 hc         1 PRM       0.077867
     58 H461         5.1590     1.5620    -2.1840 hx         1 PRM       0.098033
     59 H462         3.4080     1.6530    -2.0130 hx         1 PRM       0.098033
     60 H463         4.4510     2.4670    -0.8260 hx         1 PRM       0.098033
     61 H471         3.3070    -0.6780    -2.1160 hx         1 PRM       0.093450
     62 H472         5.0420    -0.7810    -2.2460 hx         1 PRM       0.093450
     63 H481         4.0580    -2.9320    -1.5960 hc         1 PRM       0.077867
     64 H482         5.1210    -2.3870    -0.3110 hc         1 PRM       0.077867
     65 H483         3.3660    -2.2670    -0.1310 hc         1 PRM       0.077867
@<TRIPOS>BOND
     1     1     2 ar  
     2     1     6 ar  
     3     1    32 1   
     4     2     3 ar  
     5     2    10 ar  
     6     3     4 ar  
     7     3     7 ar  
     8     4     5 ar  
     9     4    33 1   
    10     5     6 ar  
    11     5    21 1   
    12     6    34 1   
    13     7     8 1   
    14     7    15 1   
    15     8     9 2   
    16     8    23 1   
    17     9    10 ar  
    18     9    11 ar  
    19    10    14 ar  
    20    11    12 ar  
    21    11    35 1   
    22    12    13 ar  
    23    12    22 1   
    24    13    14 ar  
    25    13    36 1   
    26    14    37 1   
    27    15    16 ar  
    28    15    20 ar  
    29    16    17 ar  
    30    16    38 1   
    31    17    18 ar  
    32    17    39 1   
    33    18    19 ar  
    34    18    40 1   
    35    19    20 ar  
    36    19    41 1   
    37    20    42 1   
    38    21    43 1   
    39    21    44 1   
    40    22    45 1   
    41    22    46 1   
    42    23    24 1   
    43    23    47 1   
    44    23    48 1   
    45    24    25 1   
    46    24    49 1   
    47    24    50 1   
    48    25    26 1   
    49    25    51 1   
    50    25    52 1   
    51    26    27 1   
    52    26    29 1   
    53    26    30 1   
    54    27    28 1   
    55    27    53 1   
    56    27    54 1   
    57    28    55 1   
    58    28    56 1   
    59    28    57 1   
    60    29    58 1   
    61    29    59 1   
    62    29    60 1   
    63    30    31 1   
    64    30    61 1   
    65    30    62 1   
    66    31    63 1   
    67    31    64 1   
    68    31    65 1   
@<TRIPOS>SUBSTRUCTURE
     1 PRM         1 TEMP              0 ****  ****    0 ROOT
