@<TRIPOS>MOLECULE
PRQ
   24    24     1     0     0
SMALL
No Charge or Current Charge


@<TRIPOS>ATOM
      1 OAB         23.6010   -17.6590    30.3060 o          1 PRQ      -0.731500
      2 CAE         22.8390   -18.6130    30.3240 c          1 PRQ       0.719000
      3 CAJ         23.3860   -19.9620    30.8010 c3         1 PRQ      -0.241400
      4 CAM         24.0170   -20.7240    29.6150 c3         1 PRQ       0.204800
      5 NAA         22.9450   -21.2050    28.7240 n8         1 PRQ      -1.004200
      6 CAK         24.9550   -21.8960    30.0010 ca         1 PRQ       0.033700
      7 CAH         24.8600   -22.5120    31.2740 ca         1 PRQ      -0.113000
      8 CAF         25.6810   -23.5980    31.6180 ca         1 PRQ      -0.086000
      9 CAG         26.6050   -24.1030    30.6940 ca         1 PRQ      -0.142000
     10 CAI         26.7070   -23.5220    29.4220 ca         1 PRQ      -0.068000
     11 CAL         25.8930   -22.4220    29.0690 ca         1 PRQ      -0.169200
     12 NAN         26.0310   -21.8510    27.7020 no         1 PRQ       0.688200
     13 OAD         26.4430   -20.6870    27.6130 o          1 PRQ      -0.398000
     14 OAC         26.0220   -22.6460    26.7530 o          1 PRQ      -0.398000
     15 OXT         21.6820   -18.5650    29.9360 o          1 PRQ      -0.731500
     16 HAJ1        24.2050   -19.7860    31.5100 hc         1 PRQ       0.032700
     17 HAJ2        22.5800   -20.5880    31.2040 hc         1 PRQ       0.032700
     18 HAM         24.6130   -19.9800    29.0660 h1         1 PRQ       0.094700
     19 HAA1        22.4280   -21.9450    29.2110 hn         1 PRQ       0.403000
     20 HAA2        22.2480   -20.4540    28.6400 hn         1 PRQ       0.403000
     21 HAH         24.1420   -22.1620    32.0100 ha         1 PRQ       0.125000
     22 HAF         25.5940   -24.0540    32.6020 ha         1 PRQ       0.107000
     23 HAG         27.2370   -24.9470    30.9600 ha         1 PRQ       0.109000
     24 HAI         27.4240   -23.9250    28.7080 ha         1 PRQ       0.129000
@<TRIPOS>BOND
     1     1     2 1   
     2     2     3 1   
     3     2    15 1   
     4     3     4 1   
     5     3    16 1   
     6     3    17 1   
     7     4     5 1   
     8     4     6 1   
     9     4    18 1   
    10     5    19 1   
    11     5    20 1   
    12     6     7 ar  
    13     6    11 ar  
    14     7     8 ar  
    15     7    21 1   
    16     8     9 ar  
    17     8    22 1   
    18     9    10 ar  
    19     9    23 1   
    20    10    11 ar  
    21    10    24 1   
    22    11    12 1   
    23    12    13 1   
    24    12    14 1   
@<TRIPOS>SUBSTRUCTURE
     1 PRQ         1 TEMP              0 ****  ****    0 ROOT
