@<TRIPOS>MOLECULE
PRQ
   24    24     1     0     0
SMALL
bcc


@<TRIPOS>ATOM
      1 OAB         22.4900   -18.5420    28.9510 o          1 PRQ      -0.836800
      2 CAE         22.9890   -18.5920    30.0950 c          1 PRQ       0.929600
      3 CAJ         23.8210   -19.8350    30.4670 c3         1 PRQ      -0.241400
      4 CAM         23.7810   -20.9720    29.4430 c3         1 PRQ       0.204800
      5 NAA         22.4580   -21.5580    29.2490 n8         1 PRQ      -0.893800
      6 CAK         24.7710   -22.0500    29.8420 ca         1 PRQ       0.033700
      7 CAH         24.4190   -22.9560    30.8440 ca         1 PRQ      -0.131000
      8 CAF         25.2690   -23.9650    31.2610 ca         1 PRQ      -0.104000
      9 CAG         26.5140   -24.1230    30.6660 ca         1 PRQ      -0.160000
     10 CAI         26.8930   -23.2600    29.6560 ca         1 PRQ      -0.086000
     11 CAL         26.0340   -22.2340    29.2780 ca         1 PRQ      -0.169200
     12 NAN         26.5370   -21.3420    28.2430 no         1 PRQ       0.308200
     13 OAD         26.3850   -20.1520    28.3880 o          1 PRQ      -0.208000
     14 OAC         27.1070   -21.8430    27.3020 o          1 PRQ      -0.208000
     15 OXT         22.9000   -17.7180    30.9780 o          1 PRQ      -0.836800
     16 HAJ1        24.8550   -19.5100    30.6240 hc         1 PRQ       0.032700
     17 HAJ2        23.4850   -20.2110    31.4410 hc         1 PRQ       0.032700
     18 HAM         24.0600   -20.5610    28.4750 h1         1 PRQ       0.094700
     19 HAA1        22.0390   -21.7830    30.1440 hn         1 PRQ       0.347800
     20 HAA2        21.8790   -20.8160    28.8740 hn         1 PRQ       0.347800
     21 HAH         23.4510   -22.8720    31.3200 ha         1 PRQ       0.143000
     22 HAF         24.9570   -24.6340    32.0510 ha         1 PRQ       0.125000
     23 HAG         27.1850   -24.9080    30.9860 ha         1 PRQ       0.127000
     24 HAI         27.8600   -23.3690    29.1840 ha         1 PRQ       0.147000
@<TRIPOS>BOND
     1     1     2 1   
     2     2     3 1   
     3     2    15 1   
     4     3     4 1   
     5     3    16 1   
     6     3    17 1   
     7     4     5 1   
     8     4     6 1   
     9     4    18 1   
    10     5    19 1   
    11     5    20 1   
    12     6     7 ar  
    13     6    11 ar  
    14     7     8 ar  
    15     7    21 1   
    16     8     9 ar  
    17     8    22 1   
    18     9    10 ar  
    19     9    23 1   
    20    10    11 ar  
    21    10    24 1   
    22    11    12 1   
    23    12    13 1   
    24    12    14 1   
@<TRIPOS>SUBSTRUCTURE
     1 PRQ         1 TEMP              0 ****  ****    0 ROOT
