@<TRIPOS>MOLECULE
PRR
   25    25     1     0     0
SMALL
bcc


@<TRIPOS>ATOM
      1 N           16.8900   -17.3690    23.3620 n8         1 PRR      -0.927800
      2 CA          17.1770   -18.1240    24.5670 c3         1 PRR       0.016500
      3 C           15.9910   -19.0430    24.9780 c          1 PRR       0.927600
      4 O           15.0690   -19.1750    24.1510 o          1 PRR      -0.799800
      5 N1          20.9730   -15.8060    25.2240 na         1 PRR       0.045900
      6 C2          20.7560   -14.6520    24.5760 ca         1 PRR      -0.080300
      7 C3          19.4740   -14.2500    24.2920 ca         1 PRR      -0.139000
      8 C4          18.4100   -15.0500    24.6780 ca         1 PRR      -0.008000
      9 C5          17.5310   -17.1750    25.7290 c3         1 PRR      -0.029100
     10 C8          18.6400   -16.2480    25.3480 ca         1 PRR      -0.022300
     11 C9          19.9550   -16.5900    25.6020 ca         1 PRR      -0.064300
     12 OXT         16.0840   -19.5790    26.0980 o          1 PRR      -0.799800
     13 H           17.6660   -17.4060    22.7170 hn         1 PRR       0.351300
     14 H2          16.0980   -17.8090    22.9100 hn         1 PRR       0.351300
     15 HA          18.0410   -18.7910    24.4260 h1         1 PRR       0.010700
     16 H3          19.3190   -13.3160    23.7720 ha         1 PRR       0.178000
     17 H4          17.3950   -14.7390    24.4690 ha         1 PRR       0.198000
     18 H51         16.6510   -16.5860    25.9950 hc         1 PRR       0.083700
     19 H52         17.8160   -17.7570    26.6050 hc         1 PRR       0.083700
     20 H9          20.2180   -17.5030    26.1180 h4         1 PRR       0.198000
     21 H101        22.3610   -17.1690    25.9970 h1         1 PRR       0.085367
     22 H102        22.9210   -16.2400    24.5930 h1         1 PRR       0.085367
     23 H103        22.8000   -15.4610    26.1880 h1         1 PRR       0.085367
     24 C10         22.3560   -16.1950    25.5210 c3         1 PRR      -0.013400
     25 HC2         21.6280   -14.0740    24.3040 h4         1 PRR       0.182000
@<TRIPOS>BOND
     1     1     2 1   
     2     1    13 1   
     3     1    14 1   
     4     2     3 1   
     5     2     9 1   
     6     2    15 1   
     7     3     4 1   
     8     3    12 1   
     9     5     6 1   
    10     5    11 2   
    11     5    24 1   
    12     6     7 ar  
    13     6    25 1   
    14     7     8 ar  
    15     7    16 1   
    16     8    10 ar  
    17     8    17 1   
    18     9    10 1   
    19     9    18 1   
    20     9    19 1   
    21    10    11 ar  
    22    11    20 1   
    23    21    24 1   
    24    22    24 1   
    25    23    24 1   
@<TRIPOS>SUBSTRUCTURE
     1 PRR         1 TEMP              0 ****  ****    0 ROOT
