@<TRIPOS>MOLECULE
PRR
   25    25     1     0     0
SMALL
No Charge or Current Charge


@<TRIPOS>ATOM
      1 N           16.8820   -17.4900    23.2550 n8         1 PRR      -0.927800
      2 CA          17.0950   -18.1360    24.6070 c3         1 PRR       0.016500
      3 C           15.9890   -19.1800    25.0960 c          1 PRR       0.927600
      4 O           16.0170   -20.3130    24.6240 o          1 PRR      -0.799800
      5 N1          20.9970   -15.8690    25.1380 na         1 PRR       0.045900
      6 C2          20.7960   -14.5520    24.7170 ca         1 PRR      -0.080300
      7 C3          19.4980   -14.0210    24.6080 ca         1 PRR      -0.139000
      8 C4          18.3840   -14.8240    24.9200 ca         1 PRR      -0.008000
      9 C5          17.3820   -17.0460    25.6780 c3         1 PRR      -0.029100
     10 C8          18.5760   -16.1570    25.3370 ca         1 PRR      -0.022300
     11 C9          19.8880   -16.6640    25.4390 ca         1 PRR      -0.064300
     12 OXT         15.1540   -18.8340    25.9280 o          1 PRR      -0.799800
     13 H           17.7140   -16.9450    23.0040 hn         1 PRR       0.351300
     14 H2          16.8330   -18.2220    22.5360 hn         1 PRR       0.351300
     15 HA          18.0180   -18.7220    24.5080 h1         1 PRR       0.010700
     16 H3          19.3530   -12.9930    24.2810 ha         1 PRR       0.178000
     17 H4          17.3790   -14.4150    24.8320 ha         1 PRR       0.198000
     18 H51         16.4800   -16.4380    25.8220 hc         1 PRR       0.083700
     19 H52         17.5650   -17.5390    26.6420 hc         1 PRR       0.083700
     20 H9          20.0750   -17.6910    25.7570 h4         1 PRR       0.198000
     21 H101        22.4090   -17.1540    26.0500 h1         1 PRR       0.085367
     22 H102        22.6220   -16.9110    24.2900 h1         1 PRR       0.085367
     23 H103        23.0770   -15.6180    25.4390 h1         1 PRR       0.085367
     24 C10         22.3580   -16.4210    25.2350 c3         1 PRR      -0.013400
     25 HC2         21.6770   -13.9530    24.4770 h4         1 PRR       0.182000
@<TRIPOS>BOND
     1     1     2 1   
     2     1    13 1   
     3     1    14 1   
     4     2     3 1   
     5     2     9 1   
     6     2    15 1   
     7     3     4 1   
     8     3    12 1   
     9     5     6 1   
    10     5    11 2   
    11     5    24 1   
    12     6     7 ar  
    13     6    25 1   
    14     7     8 ar  
    15     7    16 1   
    16     8    10 ar  
    17     8    17 1   
    18     9    10 1   
    19     9    18 1   
    20     9    19 1   
    21    10    11 ar  
    22    11    20 1   
    23    21    24 1   
    24    22    24 1   
    25    23    24 1   
@<TRIPOS>SUBSTRUCTURE
     1 PRR         1 TEMP              0 ****  ****    0 ROOT
