@<TRIPOS>MOLECULE
PRS
   14    14     1     0     0
SMALL
No Charge or Current Charge


@<TRIPOS>ATOM
      1 N          -31.4610    45.1870   -14.7500 n7         1 PRS      -0.845400
      2 CD         -30.6200    44.0590   -15.1770 c5         1 PRS       0.335800
      3 CA         -31.4760    46.1290   -15.9290 c5         1 PRS       0.018500
      4 CB         -32.0690    45.2680   -17.0790 c5         1 PRS       0.140600
      5 SG         -31.4330    43.5390   -16.7590 ss         1 PRS      -0.591000
      6 C          -32.2940    47.4810   -15.7680 c          1 PRS       0.735000
      7 O          -32.1270    48.1490   -14.7540 o          1 PRS      -0.718000
      8 OXT        -33.0860    47.8300   -16.6360 o          1 PRS      -0.718000
      9 H          -31.0240    45.6460   -13.9410 hn         1 PRS       0.433000
     10 HD3        -29.5940    44.3890   -15.3870 h2         1 PRS       0.029200
     11 HD2        -30.6320    43.2360   -14.4510 h2         1 PRS       0.029200
     12 HA         -30.4430    46.4160   -16.1760 h1         1 PRS       0.013700
     13 HB2        -33.1670    45.2500   -17.0430 h1         1 PRS       0.068700
     14 HB3        -31.7610    45.6310   -18.0690 h1         1 PRS       0.068700
@<TRIPOS>BOND
     1     1     2 1   
     2     1     3 1   
     3     1     9 1   
     4     2     5 1   
     5     2    10 1   
     6     2    11 1   
     7     3     4 1   
     8     3     6 1   
     9     3    12 1   
    10     4     5 1   
    11     4    13 1   
    12     4    14 1   
    13     6     7 1   
    14     6     8 1   
@<TRIPOS>SUBSTRUCTURE
     1 PRS         1 TEMP              0 ****  ****    0 ROOT
