@<TRIPOS>MOLECULE
PRS
   14    14     1     0     0
SMALL
bcc


@<TRIPOS>ATOM
      1 N          -31.3540    45.3020   -14.8140 n7         1 PRS      -0.790200
      2 CD         -30.6240    44.1110   -15.1670 c5         1 PRS       0.287900
      3 CA         -31.4800    46.1440   -15.9890 c5         1 PRS       0.018500
      4 CB         -32.1300    45.2370   -17.0270 c5         1 PRS       0.092700
      5 SG         -31.3150    43.6180   -16.7950 ss         1 PRS      -0.495200
      6 C          -32.2810    47.4410   -15.7400 c          1 PRS       0.945600
      7 O          -32.5350    47.7420   -14.5610 o          1 PRS      -0.823300
      8 OXT        -32.5740    48.0810   -16.7690 o          1 PRS      -0.823300
      9 H          -30.9040    45.7970   -14.0540 hn         1 PRS       0.377800
     10 HD3        -29.5420    44.2530   -15.2800 h2         1 PRS       0.029200
     11 HD2        -30.7910    43.3130   -14.4420 h2         1 PRS       0.029200
     12 HA         -30.4930    46.4450   -16.3850 h1         1 PRS       0.013700
     13 HB2        -33.2020    45.1400   -16.8550 h1         1 PRS       0.068700
     14 HB3        -31.9630    45.5860   -18.0420 h1         1 PRS       0.068700
@<TRIPOS>BOND
     1     1     2 1   
     2     1     3 1   
     3     1     9 1   
     4     2     5 1   
     5     2    10 1   
     6     2    11 1   
     7     3     4 1   
     8     3     6 1   
     9     3    12 1   
    10     4     5 1   
    11     4    13 1   
    12     4    14 1   
    13     6     7 1   
    14     6     8 1   
@<TRIPOS>SUBSTRUCTURE
     1 PRS         1 TEMP              0 ****  ****    0 ROOT
