@<TRIPOS>MOLECULE
PRU
   34    33     1     0     0
SMALL
No Charge or Current Charge


@<TRIPOS>ATOM
      1 O42         -5.6020     1.9430     0.4440 o          1 PRU      -0.796000
      2 O41         -5.9060     0.6100    -1.2130 o          1 PRU      -0.796000
      3 C4          -5.3180     0.9400    -0.1940 c          1 PRU       0.707000
      4 C41         -4.1380     0.0750     0.2850 c3         1 PRU      -0.185400
      5 C32         -2.8140     0.5690    -0.3530 c3         1 PRU      -0.031400
      6 C3          -1.6210    -1.7020    -0.1680 c          1 PRU       0.734000
      7 O31         -1.6660    -2.4820     0.7720 o          1 PRU      -0.783500
      8 O32         -1.6480    -2.0710    -1.3340 o          1 PRU      -0.783500
      9 C22         -0.2500     0.4640    -0.4430 c3         1 PRU      -0.015400
     10 C2           1.2230     0.1830     1.6500 c          1 PRU       0.732000
     11 O21          1.2320     1.3380     2.0530 o          1 PRU      -0.782000
     12 O22          1.3250    -0.7780     2.3990 o          1 PRU      -0.782000
     13 C10          3.9010    -1.5420    -0.4920 c3         1 PRU      -0.058100
     14 C11          3.7120    -0.0240    -0.2420 c3         1 PRU      -0.171700
     15 C12          2.3070     0.4990    -0.6640 c3         1 PRU      -0.025400
     16 C1           4.8350     0.7920    -0.9300 c          1 PRU       0.712000
     17 O12          4.9270     0.7680    -2.1490 o          1 PRU      -0.790500
     18 O11          5.6000     1.4320    -0.2240 o          1 PRU      -0.790500
     19 C21          1.0940    -0.0800     0.1260 c3         1 PRU      -0.182700
     20 C31         -1.5420    -0.1820     0.1390 c3         1 PRU      -0.181700
     21 H2          -4.0060     0.1790     1.3690 hc         1 PRU       0.026700
     22 H3          -4.2700    -0.9620    -0.0470 hc         1 PRU       0.026700
     23 H4          -2.8870     0.4870    -1.4440 hc         1 PRU       0.010200
     24 H5          -2.7000     1.6370    -0.1280 hc         1 PRU       0.010200
     25 H7          -0.2860     1.5470    -0.2730 hc         1 PRU       0.001200
     26 H8          -0.2550     0.3310    -1.5320 hc         1 PRU       0.001200
     27 H12          3.7270    -1.7920    -1.5450 hc         1 PRU       0.006700
     28 H13          3.8200     0.1400     0.8360 hc         1 PRU       0.049700
     29 H14          2.3000     1.5920    -0.5600 hc         1 PRU       0.013700
     30 H15          2.1640     0.2940    -1.7320 hc         1 PRU       0.013700
     31 H17          1.0950    -1.1640    -0.0270 hc         1 PRU       0.047700
     32 H18         -1.5100    -0.0650     1.2280 hc         1 PRU       0.047700
     33 H10          4.9210    -1.8470    -0.2300 hc         1 PRU       0.006700
     34 H11          3.2100    -2.1330     0.1210 hc         1 PRU       0.006700
@<TRIPOS>BOND
     1     1     3 1   
     2     2     3 1   
     3     3     4 1   
     4     4     5 1   
     5     4    21 1   
     6     4    22 1   
     7     5    20 1   
     8     5    23 1   
     9     5    24 1   
    10     6     7 1   
    11     6     8 1   
    12     6    20 1   
    13     9    19 1   
    14     9    20 1   
    15     9    25 1   
    16     9    26 1   
    17    10    11 1   
    18    10    12 1   
    19    10    19 1   
    20    13    14 1   
    21    13    27 1   
    22    13    33 1   
    23    13    34 1   
    24    14    15 1   
    25    14    16 1   
    26    14    28 1   
    27    15    19 1   
    28    15    29 1   
    29    15    30 1   
    30    16    17 1   
    31    16    18 1   
    32    19    31 1   
    33    20    32 1   
@<TRIPOS>SUBSTRUCTURE
     1 PRU         1 TEMP              0 ****  ****    0 ROOT
