@<TRIPOS>MOLECULE
PRU
   34    33     1     0     0
SMALL
bcc


@<TRIPOS>ATOM
      1 O42         -5.1250     1.9630    -0.8590 o          1 PRU      -0.901300
      2 O41         -6.3880     0.4510     0.1750 o          1 PRU      -0.901300
      3 C4          -5.2900     0.9110    -0.2090 c          1 PRU       0.917600
      4 C41         -4.0460     0.0940     0.1810 c3         1 PRU      -0.185400
      5 C32         -2.7250     0.5630    -0.4090 c3         1 PRU      -0.031400
      6 C3          -1.6050    -1.6790    -0.1900 c          1 PRU       0.944600
      7 O31         -1.8770    -2.4600     0.7470 o          1 PRU      -0.888800
      8 O32         -1.4450    -2.0080    -1.3870 o          1 PRU      -0.888800
      9 C22         -0.2250     0.4400    -0.4460 c3         1 PRU      -0.015400
     10 C2           1.2140    -0.0100     1.5900 c          1 PRU       0.942600
     11 O21          1.1300     1.1510     2.0510 o          1 PRU      -0.887300
     12 O22          1.4050    -1.0440     2.2650 o          1 PRU      -0.887300
     13 C10          3.8450    -1.4220    -0.3250 c3         1 PRU      -0.058100
     14 C11          3.6550     0.0910    -0.2020 c3         1 PRU      -0.171700
     15 C12          2.2620     0.5320    -0.6430 c3         1 PRU      -0.025400
     16 C1           4.7950     0.8330    -0.9390 c          1 PRU       0.922600
     17 O12          4.4900     1.6620    -1.8210 o          1 PRU      -0.895800
     18 O11          5.9590     0.5420    -0.5880 o          1 PRU      -0.895800
     19 C21          1.0880    -0.1530     0.0660 c3         1 PRU      -0.182700
     20 C31         -1.4960    -0.1790     0.1300 c3         1 PRU      -0.181700
     21 H2          -3.9750     0.1000     1.2760 hc         1 PRU       0.026700
     22 H3          -4.2300    -0.9530    -0.0810 hc         1 PRU       0.026700
     23 H4          -2.7470     0.4600    -1.4990 hc         1 PRU       0.010200
     24 H5          -2.6040     1.6320    -0.2130 hc         1 PRU       0.010200
     25 H7          -0.2290     1.5150    -0.2370 hc         1 PRU       0.001200
     26 H8          -0.2550     0.3430    -1.5360 hc         1 PRU       0.001200
     27 H12          3.6690    -1.7590    -1.3500 hc         1 PRU       0.006700
     28 H13          3.7710     0.3430     0.8610 hc         1 PRU       0.049700
     29 H14          2.1660     1.6120    -0.5000 hc         1 PRU       0.013700
     30 H15          2.1570     0.3640    -1.7210 hc         1 PRU       0.013700
     31 H17          1.1010    -1.2180    -0.1860 hc         1 PRU       0.047700
     32 H18         -1.4850    -0.0550     1.2200 hc         1 PRU       0.047700
     33 H10          4.8580    -1.7100    -0.0470 hc         1 PRU       0.006700
     34 H11          3.1550    -1.9590     0.3260 hc         1 PRU       0.006700
@<TRIPOS>BOND
     1     1     3 1   
     2     2     3 1   
     3     3     4 1   
     4     4     5 1   
     5     4    21 1   
     6     4    22 1   
     7     5    20 1   
     8     5    23 1   
     9     5    24 1   
    10     6     7 1   
    11     6     8 1   
    12     6    20 1   
    13     9    19 1   
    14     9    20 1   
    15     9    25 1   
    16     9    26 1   
    17    10    11 1   
    18    10    12 1   
    19    10    19 1   
    20    13    14 1   
    21    13    27 1   
    22    13    33 1   
    23    13    34 1   
    24    14    15 1   
    25    14    16 1   
    26    14    28 1   
    27    15    19 1   
    28    15    29 1   
    29    15    30 1   
    30    16    17 1   
    31    16    18 1   
    32    19    31 1   
    33    20    32 1   
@<TRIPOS>SUBSTRUCTURE
     1 PRU         1 TEMP              0 ****  ****    0 ROOT
