@<TRIPOS>MOLECULE
PRV
   21    21     1     0     0
SMALL
bcc


@<TRIPOS>ATOM
      1 C           -3.5530   -38.7250    25.1260 c          1 PRV       0.644900
      2 N           -2.1300   -37.1110    26.2940 n8         1 PRV      -0.859800
      3 O           -2.6830   -39.5660    25.0960 o          1 PRV      -0.577100
      4 N1          -4.4610   -34.5070    25.1290 no         1 PRV       0.301200
      5 O1          -4.1160   -33.4230    25.5390 o          1 PRV      -0.248000
      6 O2          -4.3980   -34.8420    23.9690 o          1 PRV      -0.248000
      7 CA          -3.3230   -37.2770    25.4840 c3         1 PRV       0.121800
      8 CG          -4.5340   -36.7360    26.1980 ca         1 PRV      -0.260300
      9 CZ          -6.6610   -35.8270    27.7710 ca         1 PRV      -0.065000
     10 CD1         -5.1190   -37.6340    27.1540 ca         1 PRV       0.565700
     11 CD2         -5.0280   -35.4450    26.0960 ca         1 PRV      -0.055200
     12 CE1         -6.2120   -37.1230    27.9150 ca         1 PRV      -0.292000
     13 CE2         -6.0710   -34.9490    26.8680 ca         1 PRV      -0.276000
     14 OXT         -4.6800   -38.8130    27.2720 o          1 PRV      -0.749700
     15 HN          -1.3230   -37.4540    25.7870 hn         1 PRV       0.328300
     16 HNA         -1.9670   -36.1230    26.4420 hn         1 PRV       0.328300
     17 HA          -3.2400   -36.8040    24.4920 h1         1 PRV       0.026700
     18 HZ          -7.4940   -35.4800    28.3710 ha         1 PRV       0.095000
     19 HD1         -4.5510   -38.9100    24.6810 h4         1 PRV      -0.018800
     20 HE1         -6.6880   -37.7800    28.6340 ha         1 PRV       0.115000
     21 HE2         -6.4310   -33.9370    26.7470 ha         1 PRV       0.124000
@<TRIPOS>BOND
     1     1     3 2   
     2     1     7 1   
     3     1    19 1   
     4     2     7 1   
     5     2    15 1   
     6     2    16 1   
     7     4     5 1   
     8     4     6 1   
     9     4    11 1   
    10     7     8 1   
    11     7    17 1   
    12     8    10 ar  
    13     8    11 ar  
    14     9    12 ar  
    15     9    13 ar  
    16     9    18 1   
    17    10    12 ar  
    18    10    14 1   
    19    11    13 ar  
    20    12    20 1   
    21    13    21 1   
@<TRIPOS>SUBSTRUCTURE
     1 PRV         1 TEMP              0 ****  ****    0 ROOT
