@<TRIPOS>MOLECULE
PRV
   21    21     1     0     0
SMALL
No Charge or Current Charge


@<TRIPOS>ATOM
      1 C           -3.4830   -38.8330    24.9960 c          1 PRV       0.644900
      2 N           -2.0790   -36.9930    26.2490 n8         1 PRV      -0.970200
      3 O           -2.5500   -39.6330    24.8970 o          1 PRV      -0.577100
      4 N1          -4.3340   -34.5290    25.1370 no         1 PRV       0.681200
      5 O1          -3.8260   -33.4930    25.5890 o          1 PRV      -0.438000
      6 O2          -4.5170   -34.7340    23.9280 o          1 PRV      -0.438000
      7 CA          -3.3280   -37.3390    25.4950 c3         1 PRV       0.121800
      8 CG          -4.5420   -36.8110    26.2900 ca         1 PRV      -0.260300
      9 CZ          -6.7270   -35.8040    27.7920 ca         1 PRV      -0.047000
     10 CD1         -5.2110   -37.6390    27.2330 ca         1 PRV       0.565700
     11 CD2         -4.9880   -35.4650    26.1110 ca         1 PRV      -0.055200
     12 CE1         -6.2940   -37.1230    27.9630 ca         1 PRV      -0.274000
     13 CE2         -6.0730   -34.9810    26.8720 ca         1 PRV      -0.258000
     14 OXT         -4.8720   -38.8210    27.4350 o          1 PRV      -0.749700
     15 HN          -1.2610   -37.2460    25.6820 hn         1 PRV       0.383500
     16 HNA         -2.0120   -35.9740    26.3500 hn         1 PRV       0.383500
     17 HA          -3.2680   -36.7820    24.5530 h1         1 PRV       0.026700
     18 HZ          -7.5660   -35.4230    28.3710 ha         1 PRV       0.077000
     19 HD1         -4.5150   -39.1280    24.7000 h4         1 PRV      -0.018800
     20 HE1         -6.8030   -37.7600    28.6790 ha         1 PRV       0.097000
     21 HE2         -6.4130   -33.9560    26.7410 ha         1 PRV       0.106000
@<TRIPOS>BOND
     1     1     3 2   
     2     1     7 1   
     3     1    19 1   
     4     2     7 1   
     5     2    15 1   
     6     2    16 1   
     7     4     5 1   
     8     4     6 1   
     9     4    11 1   
    10     7     8 1   
    11     7    17 1   
    12     8    10 ar  
    13     8    11 ar  
    14     9    12 ar  
    15     9    13 ar  
    16     9    18 1   
    17    10    12 ar  
    18    10    14 1   
    19    11    13 ar  
    20    12    20 1   
    21    13    21 1   
@<TRIPOS>SUBSTRUCTURE
     1 PRV         1 TEMP              0 ****  ****    0 ROOT
