@<TRIPOS>MOLECULE
PRW
   17    16     1     0     0
SMALL
abcg2


@<TRIPOS>ATOM
      1 O7          -2.4590    -0.5980     0.5070 o          1 PRW      -0.714500
      2 C5          -1.6010     0.1540     0.0110 c          1 PRW       0.689000
      3 C4          -0.2930    -0.5280    -0.4470 c3         1 PRW      -0.020700
      4 O6          -0.3210    -1.8800    -0.0750 oh         1 PRW      -0.705000
      5 C3           0.9320     0.1960     0.1410 c3         1 PRW       0.189300
      6 O8           0.9550     1.5370    -0.2860 oh         1 PRW      -0.702000
      7 C2           2.2320    -0.4770    -0.2700 c3         1 PRW       0.141800
      8 N1           3.3790     0.1700     0.3530 n8         1 PRW      -0.978200
      9 OXT         -1.6870     1.3940    -0.1460 o          1 PRW      -0.714500
     10 H4          -0.2340    -0.4330    -1.5440 h1         1 PRW       0.036700
     11 H6          -1.1970    -1.9730     0.3410 ho         1 PRW       0.472000
     12 H3           0.8520     0.1350     1.2430 h1         1 PRW       0.014700
     13 H8           0.0160     1.8130    -0.2930 ho         1 PRW       0.495000
     14 H21C         2.1600    -1.5470    -0.0420 h1         1 PRW       0.030200
     15 H22C         2.3360    -0.3940    -1.3570 h1         1 PRW       0.030200
     16 H11N         3.3730    -0.0320     1.3460 hn         1 PRW       0.368500
     17 H12N         4.2280    -0.2520    -0.0000 hn         1 PRW       0.368500
@<TRIPOS>BOND
     1     1     2 1   
     2     2     3 1   
     3     2     9 1   
     4     3     4 1   
     5     3     5 1   
     6     3    10 1   
     7     4    11 1   
     8     5     6 1   
     9     5     7 1   
    10     5    12 1   
    11     6    13 1   
    12     7     8 1   
    13     7    14 1   
    14     7    15 1   
    15     8    16 1   
    16     8    17 1   
@<TRIPOS>SUBSTRUCTURE
     1 PRW         1 TEMP              0 ****  ****    0 ROOT
