@<TRIPOS>MOLECULE
PRW
   17    16     1     0     0
SMALL
No Charge or Current Charge


@<TRIPOS>ATOM
      1 O7          -2.5710    -0.5140     0.4050 o          1 PRW      -0.714500
      2 C5          -1.6660     0.1890    -0.0250 c          1 PRW       0.689000
      3 C4          -0.3250    -0.5230    -0.4300 c3         1 PRW      -0.020700
      4 O6          -0.3400    -1.9280    -0.0460 oh         1 PRW      -0.705000
      5 C3           0.9310     0.2020     0.1560 c3         1 PRW       0.189300
      6 O8           0.9030     1.5870    -0.2330 oh         1 PRW      -0.702000
      7 C2           2.2810    -0.4640    -0.2880 c3         1 PRW       0.141800
      8 N1           3.5060     0.1660     0.2810 n8         1 PRW      -0.978200
      9 OXT         -1.7350     1.4090    -0.1090 o          1 PRW      -0.714500
     10 H4          -0.2680    -0.4550    -1.5250 h1         1 PRW       0.036700
     11 H6          -1.2610    -2.0900     0.2790 ho         1 PRW       0.472000
     12 H3           0.8660     0.1380     1.2510 h1         1 PRW       0.014700
     13 H8          -0.0660     1.8220    -0.2160 ho         1 PRW       0.495000
     14 H21C         2.2770    -1.5180     0.0230 h1         1 PRW       0.030200
     15 H22C         2.3550    -0.4420    -1.3850 h1         1 PRW       0.030200
     16 H11N         3.4610     0.1130     1.3050 hn         1 PRW       0.368500
     17 H12N         4.3210    -0.4070     0.0380 hn         1 PRW       0.368500
@<TRIPOS>BOND
     1     1     2 1   
     2     2     3 1   
     3     2     9 1   
     4     3     4 1   
     5     3     5 1   
     6     3    10 1   
     7     4    11 1   
     8     5     6 1   
     9     5     7 1   
    10     5    12 1   
    11     6    13 1   
    12     7     8 1   
    13     7    14 1   
    14     7    15 1   
    15     8    16 1   
    16     8    17 1   
@<TRIPOS>SUBSTRUCTURE
     1 PRW         1 TEMP              0 ****  ****    0 ROOT
