@<TRIPOS>MOLECULE
PRX
   45    47     1     0     0
SMALL
No Charge or Current Charge


@<TRIPOS>ATOM
      1 O2          75.2620   126.1670    85.5880 oh         1 PRX      -0.709000
      2 C2          75.6040   126.0950    84.1960 c5         1 PRX       0.136300
      3 C1          75.9680   124.6420    83.7030 c5         1 PRX       0.315300
      4 O4          74.7380   124.0570    83.2100 os         1 PRX      -0.419000
      5 C4          73.6460   124.9810    83.4260 c5         1 PRX       0.116300
      6 C5          72.4780   124.7610    82.4180 c3         1 PRX       0.234600
      7 O5          72.2910   123.3550    82.1850 os         1 PRX      -0.583400
      8 P           72.1450   122.8130    80.6750 p5         1 PRX       1.391800
      9 O1P         71.1490   123.6240    79.9140 o          1 PRX      -0.809500
     10 O2P         71.7960   121.3620    80.6510 o          1 PRX      -0.809500
     11 O3P         73.6470   123.0920    80.1530 os         1 PRX      -0.612400
     12 C1P         74.7530   122.2750    80.5620 c3         1 PRX       0.219600
     13 C2P         74.9190   121.0690    79.6050 c3         1 PRX      -0.079400
     14 C3P         75.2350   121.4690    78.1490 c3         1 PRX      -0.080100
     15 C3          74.3230   126.3820    83.3600 c5         1 PRX       0.091300
     16 O3          73.5430   127.4300    83.9670 oh         1 PRX      -0.723000
     17 N9          76.9700   124.5090    82.6410 na         1 PRX      -0.304300
     18 C8          77.3650   125.5030    81.7360 cc         1 PRX       0.434700
     19 N7          78.2810   125.0370    80.8640 nd         1 PRX      -0.570100
     20 C10         78.4460   123.7040    81.2510 ca         1 PRX      -0.092600
     21 C9          77.6620   123.3740    82.3270 ca         1 PRX       0.108500
     22 N3          77.6520   122.1340    82.8550 nb         1 PRX      -0.214000
     23 C7          78.4660   121.2330    82.2540 ca         1 PRX       0.166900
     24 N1          79.2770   121.4550    81.1910 nb         1 PRX      -0.315000
     25 C6          79.2660   122.7010    80.6920 ca         1 PRX       0.444900
     26 N6          80.0750   122.9230    79.6220 nv         1 PRX      -1.072900
     27 H2          74.4830   126.7810    85.5800 ho         1 PRX       0.524000
     28 H1          76.4040   126.8150    83.9700 h1         1 PRX       0.067700
     29 H7          76.3500   124.0550    84.5480 h2         1 PRX       0.114700
     30 H4          73.2480   124.7950    84.4330 h1         1 PRX       0.086700
     31 H5'1        71.5630   125.2100    82.8240 h1         1 PRX       0.021200
     32 H5'2        72.7210   125.2870    81.4840 h1         1 PRX       0.021200
     33 H1P1        75.6750   122.8670    80.5480 h1         1 PRX       0.023700
     34 H1P2        74.6090   121.9030    81.5850 h1         1 PRX       0.023700
     35 H2P1        75.7420   120.4490    79.9800 hc         1 PRX       0.027700
     36 H2P2        74.0250   120.4370    79.6240 hc         1 PRX       0.027700
     37 H3P1        75.3900   120.5750    77.5340 hc         1 PRX       0.026033
     38 H3P2        74.4100   122.0450    77.7130 hc         1 PRX       0.026033
     39 H3P3        76.1460   122.0780    78.1050 hc         1 PRX       0.026033
     40 H3          74.5860   126.6390    82.3240 h1         1 PRX       0.050700
     41 H6          73.0150   127.8670    83.2540 ho         1 PRX       0.523000
     42 H8          76.9610   126.5090    81.7530 h5         1 PRX       0.100800
     43 H9          78.4670   120.2260    82.6680 h5         1 PRX       0.037100
     44 HN61        80.4000   122.1170    79.0960 hn         1 PRX       0.502500
     45 HN62        79.9200   123.7800    79.0980 hn         1 PRX       0.502500
@<TRIPOS>BOND
     1     1     2 1   
     2     1    27 1   
     3     2     3 1   
     4     2    15 1   
     5     2    28 1   
     6     3     4 1   
     7     3    17 1   
     8     3    29 1   
     9     4     5 1   
    10     5     6 1   
    11     5    15 1   
    12     5    30 1   
    13     6     7 1   
    14     6    31 1   
    15     6    32 1   
    16     7     8 1   
    17     8     9 1   
    18     8    10 1   
    19     8    11 1   
    20    11    12 1   
    21    12    13 1   
    22    12    33 1   
    23    12    34 1   
    24    13    14 1   
    25    13    35 1   
    26    13    36 1   
    27    14    37 1   
    28    14    38 1   
    29    14    39 1   
    30    15    16 1   
    31    15    40 1   
    32    16    41 1   
    33    17    18 1   
    34    17    21 1   
    35    18    19 2   
    36    18    42 1   
    37    19    20 1   
    38    20    21 ar  
    39    20    25 ar  
    40    21    22 ar  
    41    22    23 ar  
    42    23    24 ar  
    43    23    43 1   
    44    24    25 ar  
    45    25    26 1   
    46    26    44 1   
    47    26    45 1   
@<TRIPOS>SUBSTRUCTURE
     1 PRX         1 TEMP              0 ****  ****    0 ROOT
