@<TRIPOS>MOLECULE
PRX
   45    47     1     0     0
SMALL
bcc


@<TRIPOS>ATOM
      1 O2          75.6300   125.0410    85.5820 oh         1 PRX      -0.586800
      2 C2          75.9760   125.2270    84.2370 c5         1 PRX       0.113100
      3 C1          75.9120   123.8540    83.5700 c5         1 PRX       0.262800
      4 O4          74.6000   123.6700    83.1410 os         1 PRX      -0.372600
      5 C4          73.8390   124.8730    83.2780 c5         1 PRX       0.093100
      6 C5          72.9540   125.0750    82.0720 c3         1 PRX       0.211400
      7 O5          72.0010   124.0390    82.0100 os         1 PRX      -0.560200
      8 P           71.3290   123.6300    80.5580 p5         1 PRX       1.391800
      9 O1P         71.0290   124.8650    79.7720 o          1 PRX      -0.809500
     10 O2P         70.2860   122.6130    80.8930 o          1 PRX      -0.809500
     11 O3P         72.5940   122.9230    79.7880 os         1 PRX      -0.589200
     12 C1P         73.1190   121.6860    80.2460 c3         1 PRX       0.196400
     13 C2P         73.7190   120.9200    79.0840 c3         1 PRX      -0.079400
     14 C3P         74.8730   121.6350    78.3960 c3         1 PRX      -0.080100
     15 C3          74.8900   125.9730    83.4640 c5         1 PRX       0.068100
     16 O3          74.4570   127.0870    84.1860 oh         1 PRX      -0.600800
     17 N9          76.8120   123.7760    82.4240 na         1 PRX      -0.275000
     18 C8          76.5110   123.8230    81.0910 cc         1 PRX       0.434700
     19 N7          77.5570   123.7280    80.3220 nd         1 PRX      -0.570100
     20 C10         78.6090   123.6110    81.1900 ca         1 PRX      -0.223200
     21 C9          78.1670   123.6360    82.5030 ca         1 PRX       0.436800
     22 N3          78.9210   123.5410    83.5980 nb         1 PRX      -0.740000
     23 C7          80.2010   123.4130    83.2960 ca         1 PRX       0.692900
     24 N1          80.7680   123.3760    82.0930 nb         1 PRX      -0.841000
     25 C6          79.9980   123.4750    81.0040 ca         1 PRX       0.773200
     26 N6          80.5640   123.4510    79.7960 nv         1 PRX      -0.962500
     27 H2          75.4240   125.9000    85.9690 ho         1 PRX       0.425000
     28 H1          76.9630   125.6910    84.1290 h1         1 PRX       0.067700
     29 H7          76.2070   123.0610    84.2640 h2         1 PRX       0.114700
     30 H4          73.2210   124.8060    84.1810 h1         1 PRX       0.086700
     31 H5'1        72.4620   126.0500    82.1730 h1         1 PRX       0.021200
     32 H5'2        73.5750   125.1270    81.1710 h1         1 PRX       0.021200
     33 H1P1        73.8860   121.8670    81.0070 h1         1 PRX       0.023700
     34 H1P2        72.3370   121.0800    80.7130 h1         1 PRX       0.023700
     35 H2P1        74.0650   119.9570    79.4720 hc         1 PRX       0.027700
     36 H2P2        72.9330   120.6920    78.3590 hc         1 PRX       0.027700
     37 H3P1        75.2800   121.0290    77.5860 hc         1 PRX       0.026033
     38 H3P2        74.5610   122.5870    77.9680 hc         1 PRX       0.026033
     39 H3P3        75.6870   121.8360    79.0950 hc         1 PRX       0.026033
     40 H3          75.2970   126.2610    82.4840 h1         1 PRX       0.050700
     41 H6          73.9150   127.6450    83.6190 ho         1 PRX       0.424000
     42 H8          75.4980   123.9180    80.7330 h5         1 PRX       0.100800
     43 H9          80.8840   123.3260    84.1350 h5         1 PRX       0.037100
     44 HN61        81.5560   123.3180    79.7030 hn         1 PRX       0.447300
     45 HN62        80.0060   123.4860    78.9610 hn         1 PRX       0.447300
@<TRIPOS>BOND
     1     1     2 1   
     2     1    27 1   
     3     2     3 1   
     4     2    15 1   
     5     2    28 1   
     6     3     4 1   
     7     3    17 1   
     8     3    29 1   
     9     4     5 1   
    10     5     6 1   
    11     5    15 1   
    12     5    30 1   
    13     6     7 1   
    14     6    31 1   
    15     6    32 1   
    16     7     8 1   
    17     8     9 1   
    18     8    10 1   
    19     8    11 1   
    20    11    12 1   
    21    12    13 1   
    22    12    33 1   
    23    12    34 1   
    24    13    14 1   
    25    13    35 1   
    26    13    36 1   
    27    14    37 1   
    28    14    38 1   
    29    14    39 1   
    30    15    16 1   
    31    15    40 1   
    32    16    41 1   
    33    17    18 1   
    34    17    21 1   
    35    18    19 2   
    36    18    42 1   
    37    19    20 1   
    38    20    21 ar  
    39    20    25 ar  
    40    21    22 ar  
    41    22    23 ar  
    42    23    24 ar  
    43    23    43 1   
    44    24    25 ar  
    45    25    26 1   
    46    26    44 1   
    47    26    45 1   
@<TRIPOS>SUBSTRUCTURE
     1 PRX         1 TEMP              0 ****  ****    0 ROOT
