@<TRIPOS>MOLECULE
PRY
   23    23     1     0     0
SMALL
abcg2


@<TRIPOS>ATOM
      1 C1           0.2900    -0.3460    -0.0450 ca         1 PRY      -0.139300
      2 C2          -0.9170     0.0040    -0.6820 ca         1 PRY       0.290000
      3 C3           1.4580    -0.3700    -0.8000 ca         1 PRY      -0.071000
      4 C4           0.3330    -0.6560     1.4270 c3         1 PRY      -0.022100
      5 C5          -0.8990     0.3200    -2.0450 ca         1 PRY      -0.180000
      6 N6          -2.1010     0.0920     0.0280 nv         1 PRY      -1.069000
      7 C7           1.4740    -0.0540    -2.1520 ca         1 PRY      -0.153000
      8 C8           0.2810     0.2940    -2.7710 ca         1 PRY      -0.073000
      9 C9           0.2140     0.5870     2.3130 c3         1 PRY      -0.078400
     10 C10          0.2480     0.2430     3.7960 c3         1 PRY      -0.090100
     11 HC3          2.3840    -0.6470    -0.3080 ha         1 PRY       0.107000
     12 HC41         1.2730    -1.1640     1.6570 hc         1 PRY       0.037200
     13 HC42        -0.4550    -1.3690     1.6980 hc         1 PRY       0.037200
     14 HC5         -1.8280     0.5870    -2.5370 ha         1 PRY       0.109000
     15 HN61        -2.9360     0.0550    -0.5360 hn         1 PRY       0.443000
     16 HN62        -2.1830    -0.5130     0.8290 hn         1 PRY       0.443000
     17 HC7          2.3990    -0.0830    -2.7120 ha         1 PRY       0.113000
     18 HC8          0.2630     0.5400    -3.8250 ha         1 PRY       0.109000
     19 HC91        -0.7110     1.1180     2.0790 hc         1 PRY       0.048700
     20 HC92         1.0310     1.2720     2.0750 hc         1 PRY       0.048700
     21 H101         0.1480     1.1370     4.4130 hc         1 PRY       0.030367
     22 H102        -0.5640    -0.4350     4.0640 hc         1 PRY       0.030367
     23 H103         1.1860    -0.2430     4.0680 hc         1 PRY       0.030367
@<TRIPOS>BOND
     1     1     2 ar  
     2     1     3 ar  
     3     1     4 1   
     4     2     5 ar  
     5     2     6 1   
     6     3     7 ar  
     7     3    11 1   
     8     4     9 1   
     9     4    12 1   
    10     4    13 1   
    11     5     8 ar  
    12     5    14 1   
    13     6    15 1   
    14     6    16 1   
    15     7     8 ar  
    16     7    17 1   
    17     8    18 1   
    18     9    10 1   
    19     9    19 1   
    20     9    20 1   
    21    10    21 1   
    22    10    22 1   
    23    10    23 1   
@<TRIPOS>SUBSTRUCTURE
     1 PRY         1 TEMP              0 ****  ****    0 ROOT
