@<TRIPOS>MOLECULE
PRY
   23    23     1     0     0
SMALL
No Charge or Current Charge


@<TRIPOS>ATOM
      1 C1           0.2380    -0.3550    -0.0510 ca         1 PRY      -0.139300
      2 C2          -0.9690    -0.1120    -0.7510 ca         1 PRY       0.290000
      3 C3           1.4630    -0.2690    -0.7460 ca         1 PRY      -0.071000
      4 C4           0.2640    -0.7020     1.4400 c3         1 PRY      -0.022100
      5 C5          -0.9360     0.2050    -2.1180 ca         1 PRY      -0.180000
      6 N6          -2.1880    -0.1730    -0.1240 nv         1 PRY      -1.069000
      7 C7           1.4870     0.0490    -2.1140 ca         1 PRY      -0.153000
      8 C8           0.2880     0.2860    -2.8020 ca         1 PRY      -0.073000
      9 C9           0.2850     0.5570     2.3340 c3         1 PRY      -0.078400
     10 C10          0.3190     0.2320     3.8400 c3         1 PRY      -0.090100
     11 HC3          2.4000    -0.4480    -0.2240 ha         1 PRY       0.107000
     12 HC41         1.1510    -1.3080     1.6660 hc         1 PRY       0.037200
     13 HC42        -0.5940    -1.3290     1.7110 hc         1 PRY       0.037200
     14 HC5         -1.8610     0.3910    -2.6570 ha         1 PRY       0.109000
     15 HN61        -3.0220     0.1550    -0.6070 hn         1 PRY       0.443000
     16 HN62        -2.2260    -0.2500     0.8880 hn         1 PRY       0.443000
     17 HC7          2.4370     0.1120    -2.6400 ha         1 PRY       0.113000
     18 HC8          0.3060     0.5320    -3.8620 ha         1 PRY       0.109000
     19 HC91        -0.5990     1.1710     2.1210 hc         1 PRY       0.048700
     20 HC92         1.1620     1.1650     2.0790 hc         1 PRY       0.048700
     21 H101         0.3350     1.1560     4.4300 hc         1 PRY       0.030367
     22 H102        -0.5650    -0.3470     4.1320 hc         1 PRY       0.030367
     23 H103         1.2140    -0.3500     4.0910 hc         1 PRY       0.030367
@<TRIPOS>BOND
     1     1     2 ar  
     2     1     3 ar  
     3     1     4 1   
     4     2     5 ar  
     5     2     6 1   
     6     3     7 ar  
     7     3    11 1   
     8     4     9 1   
     9     4    12 1   
    10     4    13 1   
    11     5     8 ar  
    12     5    14 1   
    13     6    15 1   
    14     6    16 1   
    15     7     8 ar  
    16     7    17 1   
    17     8    18 1   
    18     9    10 1   
    19     9    19 1   
    20     9    20 1   
    21    10    21 1   
    22    10    22 1   
    23    10    23 1   
@<TRIPOS>SUBSTRUCTURE
     1 PRY         1 TEMP              0 ****  ****    0 ROOT
