@<TRIPOS>MOLECULE
PS0
   27    27     1     0     0
SMALL
abcg2


@<TRIPOS>ATOM
      1 N           -1.1750     1.0690    -1.0310 n8         1 PS0      -1.008200
      2 CA          -1.3060    -0.1750    -0.2930 c3         1 PS0       0.141500
      3 C           -2.7340    -0.5150     0.1710 c3         1 PS0       0.123300
      4 OS          -3.2260     0.4290     1.1050 oh         1 PS0      -0.653000
      5 CB          -0.3350    -0.1640     0.8930 c3         1 PS0      -0.021100
      6 CG           1.1040    -0.1010     0.4680 ca         1 PS0      -0.066300
      7 CD1          1.7740     1.1150     0.3550 ca         1 PS0      -0.099000
      8 CD2          1.7980    -1.2680     0.1520 ca         1 PS0      -0.099000
      9 CE1          3.0980     1.1650    -0.0620 ca         1 PS0      -0.111500
     10 CE2          3.1210    -1.2240    -0.2670 ca         1 PS0      -0.111500
     11 CZ           3.7760    -0.0050    -0.3760 ca         1 PS0      -0.112000
     12 CM          -3.6920    -0.6840    -1.0000 c3         1 PS0      -0.129100
     13 H           -1.7930     1.0900    -1.8330 hn         1 PS0       0.397500
     14 HN2         -1.4120     1.8650    -0.4510 hn         1 PS0       0.397500
     15 HA          -1.0030    -0.9860    -0.9660 h1         1 PS0       0.066700
     16 HC          -2.6840    -1.4640     0.7160 h1         1 PS0       0.077700
     17 HOS         -3.3740     1.2600     0.6410 ho         1 PS0       0.432000
     18 HB1         -0.5700     0.6830     1.5440 hc         1 PS0       0.052200
     19 HB2         -0.4990    -1.0660     1.4890 hc         1 PS0       0.052200
     20 HD1          1.2560     2.0340     0.6010 ha         1 PS0       0.107000
     21 HD2          1.2960    -2.2250     0.2430 ha         1 PS0       0.107000
     22 HE1          3.6000     2.1210    -0.1420 ha         1 PS0       0.109000
     23 HE2          3.6410    -2.1440    -0.5020 ha         1 PS0       0.109000
     24 HZ           4.8090     0.0330    -0.6980 ha         1 PS0       0.109000
     25 HM1         -3.3310    -1.4450    -1.6940 hc         1 PS0       0.042367
     26 HM2         -4.6800    -0.9890    -0.6540 hc         1 PS0       0.042367
     27 HM3         -3.8110     0.2460    -1.5610 hc         1 PS0       0.042367
@<TRIPOS>BOND
     1     1     2 1   
     2     1    13 1   
     3     1    14 1   
     4     2     3 1   
     5     2     5 1   
     6     2    15 1   
     7     3     4 1   
     8     3    12 1   
     9     3    16 1   
    10     4    17 1   
    11     5     6 1   
    12     5    18 1   
    13     5    19 1   
    14     6     7 ar  
    15     6     8 ar  
    16     7     9 ar  
    17     7    20 1   
    18     8    10 ar  
    19     8    21 1   
    20     9    11 ar  
    21     9    22 1   
    22    10    11 ar  
    23    10    23 1   
    24    11    24 1   
    25    12    25 1   
    26    12    26 1   
    27    12    27 1   
@<TRIPOS>SUBSTRUCTURE
     1 PS0         1 TEMP              0 ****  ****    0 ROOT
