@<TRIPOS>MOLECULE
PS0
   27    27     1     0     0
SMALL
No Charge or Current Charge


@<TRIPOS>ATOM
      1 N           -1.2320     1.0120    -1.1640 n8         1 PS0      -1.008200
      2 CA          -1.3120    -0.1840    -0.2800 c3         1 PS0       0.141500
      3 C           -2.7740    -0.4600     0.2220 c3         1 PS0       0.123300
      4 OS          -3.2980     0.6730     0.9350 oh         1 PS0      -0.653000
      5 CB          -0.3000    -0.0740     0.8960 c3         1 PS0      -0.021100
      6 CG           1.1620    -0.0490     0.4520 ca         1 PS0      -0.066300
      7 CD1          1.9280     1.1280     0.5750 ca         1 PS0      -0.099000
      8 CD2          1.7650    -1.2130    -0.0670 ca         1 PS0      -0.099000
      9 CE1          3.2770     1.1420     0.1770 ca         1 PS0      -0.111500
     10 CE2          3.1130    -1.1980    -0.4640 ca         1 PS0      -0.111500
     11 CZ           3.8700    -0.0210    -0.3420 ca         1 PS0      -0.112000
     12 CM          -3.7540    -0.8160    -0.9170 c3         1 PS0      -0.129100
     13 H           -1.9730     0.9600    -1.8700 hn         1 PS0       0.397500
     14 HN2         -1.4700     1.8440    -0.6130 hn         1 PS0       0.397500
     15 HA          -1.0170    -1.0570    -0.8810 h1         1 PS0       0.066700
     16 HC          -2.7290    -1.3300     0.8950 h1         1 PS0       0.077700
     17 HOS         -3.6270     1.3070     0.2630 ho         1 PS0       0.432000
     18 HB1         -0.5340     0.8140     1.4950 hc         1 PS0       0.052200
     19 HB2         -0.4490    -0.9300     1.5660 hc         1 PS0       0.052200
     20 HD1          1.4790     2.0330     0.9760 ha         1 PS0       0.107000
     21 HD2          1.1880    -2.1300    -0.1600 ha         1 PS0       0.107000
     22 HE1          3.8620     2.0540     0.2730 ha         1 PS0       0.109000
     23 HE2          3.5720    -2.1000    -0.8640 ha         1 PS0       0.109000
     24 HZ           4.9130    -0.0100    -0.6490 ha         1 PS0       0.109000
     25 HM1         -3.3910    -1.6870    -1.4760 hc         1 PS0       0.042367
     26 HM2         -4.7410    -1.0690    -0.5080 hc         1 PS0       0.042367
     27 HM3         -3.8790     0.0160    -1.6200 hc         1 PS0       0.042367
@<TRIPOS>BOND
     1     1     2 1   
     2     1    13 1   
     3     1    14 1   
     4     2     3 1   
     5     2     5 1   
     6     2    15 1   
     7     3     4 1   
     8     3    12 1   
     9     3    16 1   
    10     4    17 1   
    11     5     6 1   
    12     5    18 1   
    13     5    19 1   
    14     6     7 ar  
    15     6     8 ar  
    16     7     9 ar  
    17     7    20 1   
    18     8    10 ar  
    19     8    21 1   
    20     9    11 ar  
    21     9    22 1   
    22    10    11 ar  
    23    10    23 1   
    24    11    24 1   
    25    12    25 1   
    26    12    26 1   
    27    12    27 1   
@<TRIPOS>SUBSTRUCTURE
     1 PS0         1 TEMP              0 ****  ****    0 ROOT
