@<TRIPOS>MOLECULE
PS1
   86    85     1     0     0
SMALL
No Charge or Current Charge


@<TRIPOS>ATOM
      1 O1           2.9990    -3.0830     1.8060 o          1 PS1      -0.845000
      2 O2           2.5460    -1.3390     3.4600 o          1 PS1      -0.845000
      3 P1           2.0590    -1.9920     2.2070 p5         1 PS1       1.395800
      4 O3           1.8710    -0.8910     1.0430 os         1 PS1      -0.593400
      5 C1           1.8780    -1.1890    -0.3660 c3         1 PS1       0.225600
      6 C2           0.5750    -1.9160    -0.8320 c3         1 PS1       0.009500
      7 C3           0.2150    -1.3810    -2.2700 c          1 PS1       0.687000
      8 O4          -0.8430    -0.7870    -2.4250 o          1 PS1      -0.752500
      9 O5           0.9580    -1.6670    -3.2010 o          1 PS1      -0.752500
     10 N1           0.6440    -3.4300    -0.7230 n8         1 PS1      -0.966200
     11 O6           0.5420    -2.5210     2.3800 os         1 PS1      -0.558400
     12 C4          -0.2590    -2.2640     3.5510 c3         1 PS1       0.220600
     13 C5          -1.1090    -0.9470     3.4850 c3         1 PS1       0.153300
     14 C6          -0.3770     0.3850     3.8110 c3         1 PS1       0.176600
     15 O7           0.2920     0.8990     2.6470 os         1 PS1      -0.410100
     16 C7           0.9770     2.0780     2.7650 c          1 PS1       0.637100
     17 O8           1.0040     2.7640     3.7800 o          1 PS1      -0.531000
     18 C8           1.5860     2.5220     1.4310 c3         1 PS1      -0.121400
     19 C9           3.1210     2.3300     1.4150 c3         1 PS1      -0.065400
     20 C10          3.7570     2.6700     0.0480 c3         1 PS1      -0.078400
     21 C11          5.2880     2.4690     0.0280 c3         1 PS1      -0.058400
     22 C12          5.9230     2.8060    -1.3380 c3         1 PS1      -0.079400
     23 C13          7.4550     2.6060    -1.3580 c3         1 PS1      -0.067400
     24 C14          8.0900     2.9430    -2.7250 c3         1 PS1      -0.076400
     25 C15          9.6220     2.7440    -2.7450 c3         1 PS1      -0.075400
     26 C16         10.2560     3.0810    -4.1080 c3         1 PS1      -0.086100
     27 O9          -1.8080    -0.8200     2.2200 os         1 PS1      -0.407100
     28 C17         -2.7880    -1.7210     1.8960 c          1 PS1       0.605100
     29 O10         -3.2370    -2.5670     2.6590 o          1 PS1      -0.530000
     30 C18         -3.4070    -1.4090     0.5340 c3         1 PS1      -0.145400
     31 C19         -4.5850    -0.4150     0.6650 c3         1 PS1      -0.064400
     32 C20         -5.2360    -0.0670    -0.6920 c3         1 PS1      -0.078400
     33 C21         -6.4120     0.9250    -0.5600 c3         1 PS1      -0.073400
     34 C22         -7.0640     1.2730    -1.9160 c3         1 PS1      -0.076400
     35 C23         -8.2400     2.2650    -1.7840 c3         1 PS1      -0.074400
     36 C24         -8.8930     2.6140    -3.1400 c3         1 PS1      -0.076400
     37 C25        -10.0690     3.6060    -3.0080 c3         1 PS1      -0.075400
     38 C26        -10.7200     3.9530    -4.3600 c3         1 PS1      -0.087100
     39 H1           1.9600    -0.2400    -0.9130 h1         1 PS1       0.025700
     40 H2           2.7590    -1.7850    -0.6400 h1         1 PS1       0.025700
     41 H3          -0.2370    -1.5840    -0.1710 h1         1 PS1       0.037700
     42 H5          -0.2500    -3.8290    -1.0280 hn         1 PS1       0.369000
     43 H6           1.3130    -3.7770    -1.4180 hn         1 PS1       0.369000
     44 H7           0.3650    -2.2340     4.4530 h1         1 PS1       0.024700
     45 H8          -0.9450    -3.1080     3.6990 h1         1 PS1       0.024700
     46 H9          -1.8540    -1.0470     4.2850 h1         1 PS1       0.035700
     47 H10          0.3350     0.2160     4.6300 h1         1 PS1       0.042200
     48 H11         -1.1230     1.1090     4.1630 h1         1 PS1       0.042200
     49 H12          1.3590     3.5810     1.2700 hc         1 PS1       0.070700
     50 H13          1.1600     1.9150     0.6230 hc         1 PS1       0.070700
     51 H14          3.3600     1.2910     1.6740 hc         1 PS1       0.056200
     52 H15          3.5710     2.9610     2.1920 hc         1 PS1       0.056200
     53 H16          3.5260     3.7110    -0.2080 hc         1 PS1       0.045700
     54 H17          3.3020     2.0400    -0.7270 hc         1 PS1       0.045700
     55 H18          5.5180     1.4270     0.2850 hc         1 PS1       0.030700
     56 H19          5.7440     3.0990     0.8030 hc         1 PS1       0.030700
     57 H20          5.6920     3.8470    -1.5960 hc         1 PS1       0.050200
     58 H21          5.4680     2.1760    -2.1120 hc         1 PS1       0.050200
     59 H22          7.6850     1.5650    -1.1010 hc         1 PS1       0.028700
     60 H23          7.9100     3.2360    -0.5840 hc         1 PS1       0.028700
     61 H24          7.8600     3.9850    -2.9820 hc         1 PS1       0.038700
     62 H25          7.6350     2.3140    -3.4990 hc         1 PS1       0.038700
     63 H26          9.8560     1.7030    -2.4900 hc         1 PS1       0.030700
     64 H27         10.0810     3.3740    -1.9730 hc         1 PS1       0.030700
     65 H28         11.3410     2.9240    -4.0730 hc         1 PS1       0.022700
     66 H29          9.8430     2.4420    -4.8970 hc         1 PS1       0.022700
     67 H30         10.0690     4.1280    -4.3750 hc         1 PS1       0.022700
     68 H31         -2.6470    -0.9410    -0.1020 hc         1 PS1       0.079200
     69 H32         -3.7690    -2.3400     0.0830 hc         1 PS1       0.079200
     70 H33         -5.3450    -0.8440     1.3300 hc         1 PS1       0.045700
     71 H34         -4.2280     0.5070     1.1410 hc         1 PS1       0.045700
     72 H35         -4.4760     0.3620    -1.3570 hc         1 PS1       0.040200
     73 H36         -5.5940    -0.9890    -1.1670 hc         1 PS1       0.040200
     74 H37         -7.1720     0.4960     0.1050 hc         1 PS1       0.034700
     75 H38         -6.0540     1.8470    -0.0850 hc         1 PS1       0.034700
     76 H39         -6.3040     1.7020    -2.5810 hc         1 PS1       0.038200
     77 H40         -7.4220     0.3510    -2.3910 hc         1 PS1       0.038200
     78 H41         -9.0000     1.8360    -1.1180 hc         1 PS1       0.034200
     79 H42         -7.8820     3.1880    -1.3090 hc         1 PS1       0.034200
     80 H43         -8.1330     3.0430    -3.8050 hc         1 PS1       0.037700
     81 H44         -9.2510     1.6920    -3.6150 hc         1 PS1       0.037700
     82 H45        -10.8320     3.1790    -2.3440 hc         1 PS1       0.034200
     83 H46         -9.7140     4.5300    -2.5350 hc         1 PS1       0.034200
     84 H47        -11.5480     4.6580    -4.2160 hc         1 PS1       0.028033
     85 H48         -9.9900     4.4150    -5.0350 hc         1 PS1       0.028033
     86 H49        -11.1170     3.0520    -4.8430 hc         1 PS1       0.028033
@<TRIPOS>BOND
     1     1     3 1   
     2     2     3 1   
     3     3     4 1   
     4     3    11 1   
     5     4     5 1   
     6     5     6 1   
     7     5    39 1   
     8     5    40 1   
     9     6     7 1   
    10     6    10 1   
    11     6    41 1   
    12     7     8 1   
    13     7     9 1   
    14    10    42 1   
    15    10    43 1   
    16    11    12 1   
    17    12    13 1   
    18    12    44 1   
    19    12    45 1   
    20    13    14 1   
    21    13    27 1   
    22    13    46 1   
    23    14    15 1   
    24    14    47 1   
    25    14    48 1   
    26    15    16 1   
    27    16    17 2   
    28    16    18 1   
    29    18    19 1   
    30    18    49 1   
    31    18    50 1   
    32    19    20 1   
    33    19    51 1   
    34    19    52 1   
    35    20    21 1   
    36    20    53 1   
    37    20    54 1   
    38    21    22 1   
    39    21    55 1   
    40    21    56 1   
    41    22    23 1   
    42    22    57 1   
    43    22    58 1   
    44    23    24 1   
    45    23    59 1   
    46    23    60 1   
    47    24    25 1   
    48    24    61 1   
    49    24    62 1   
    50    25    26 1   
    51    25    63 1   
    52    25    64 1   
    53    26    65 1   
    54    26    66 1   
    55    26    67 1   
    56    27    28 1   
    57    28    29 2   
    58    28    30 1   
    59    30    31 1   
    60    30    68 1   
    61    30    69 1   
    62    31    32 1   
    63    31    70 1   
    64    31    71 1   
    65    32    33 1   
    66    32    72 1   
    67    32    73 1   
    68    33    34 1   
    69    33    74 1   
    70    33    75 1   
    71    34    35 1   
    72    34    76 1   
    73    34    77 1   
    74    35    36 1   
    75    35    78 1   
    76    35    79 1   
    77    36    37 1   
    78    36    80 1   
    79    36    81 1   
    80    37    38 1   
    81    37    82 1   
    82    37    83 1   
    83    38    84 1   
    84    38    85 1   
    85    38    86 1   
@<TRIPOS>SUBSTRUCTURE
     1 PS1         1 TEMP              0 ****  ****    0 ROOT
