@<TRIPOS>MOLECULE
PS1
   86    85     1     0     0
SMALL
abcg2


@<TRIPOS>ATOM
      1 O1           1.3210    -3.3850     1.4780 o          1 PS1      -0.845000
      2 O2           2.1650    -1.1880     2.5390 o          1 PS1      -0.845000
      3 P1           1.2800    -1.8860     1.5480 p5         1 PS1       1.395800
      4 O3           1.4320    -1.2510     0.0510 os         1 PS1      -0.593400
      5 C1           2.6560    -1.4650    -0.6350 c3         1 PS1       0.225600
      6 C2           2.5540    -0.9110    -2.0450 c3         1 PS1       0.009500
      7 C3           3.9110    -1.0460    -2.7890 c          1 PS1       0.687000
      8 O4           3.8590    -1.3060    -4.0080 o          1 PS1      -0.752500
      9 O5           4.9430    -0.8440    -2.1190 o          1 PS1      -0.752500
     10 N1           1.4150    -1.4920    -2.7410 n8         1 PS1      -0.966200
     11 O6          -0.2750    -1.3810     1.7040 os         1 PS1      -0.558400
     12 C4          -0.8780    -1.4120     2.9750 c3         1 PS1       0.220600
     13 C5          -1.3550    -0.0360     3.4140 c3         1 PS1       0.153300
     14 C6          -0.2590     0.9530     3.7430 c3         1 PS1       0.176600
     15 O7           0.4740     1.2850     2.5740 os         1 PS1      -0.410100
     16 C7           1.7480     1.6380     2.7130 c          1 PS1       0.637100
     17 O8           2.2730     1.8120     3.7860 o          1 PS1      -0.531000
     18 C8           2.4130     1.8790     1.3870 c3         1 PS1      -0.121400
     19 C9           3.9220     1.6940     1.4350 c3         1 PS1      -0.065400
     20 C10          4.5860     2.0110     0.1020 c3         1 PS1      -0.078400
     21 C11          6.0940     1.8060     0.1300 c3         1 PS1      -0.058400
     22 C12          6.7670     2.1500    -1.1910 c3         1 PS1      -0.079400
     23 C13          8.2790     1.9600    -1.1680 c3         1 PS1      -0.067400
     24 C14          8.9530     2.3490    -2.4770 c3         1 PS1      -0.076400
     25 C15         10.4630     2.1460    -2.4670 c3         1 PS1      -0.075400
     26 C16         11.1230     2.5650    -3.7740 c3         1 PS1      -0.086100
     27 O9          -2.1860     0.5540     2.4080 os         1 PS1      -0.407100
     28 C17         -3.4710     0.2140     2.3450 c          1 PS1       0.605100
     29 O10         -4.0070    -0.5200     3.1370 o          1 PS1      -0.530000
     30 C18         -4.1440     0.8480     1.1590 c3         1 PS1      -0.145400
     31 C19         -5.6520     0.6550     1.1310 c3         1 PS1      -0.064400
     32 C20         -6.2710     1.2260    -0.1390 c3         1 PS1      -0.078400
     33 C21         -7.7850     1.0690    -0.1850 c3         1 PS1      -0.073400
     34 C22         -8.3990     1.5930    -1.4780 c3         1 PS1      -0.076400
     35 C23         -9.9150     1.4550    -1.5260 c3         1 PS1      -0.074400
     36 C24        -10.5220     1.9610    -2.8290 c3         1 PS1      -0.076400
     37 C25        -12.0390     1.8270    -2.8840 c3         1 PS1      -0.075400
     38 C26        -12.6290     2.3350    -4.1920 c3         1 PS1      -0.087100
     39 H1           3.4800    -0.9740    -0.1130 h1         1 PS1       0.025700
     40 H2           2.8850    -2.5390    -0.6780 h1         1 PS1       0.025700
     41 H3           2.3700     0.1710    -1.9550 h1         1 PS1       0.037700
     42 H5           1.5250    -1.2780    -3.7250 hn         1 PS1       0.369000
     43 H6           1.4960    -2.5030    -2.7000 hn         1 PS1       0.369000
     44 H7          -0.2130    -1.7920     3.7580 h1         1 PS1       0.024700
     45 H8          -1.7340    -2.0910     2.9430 h1         1 PS1       0.024700
     46 H9          -1.9200    -0.1740     4.3420 h1         1 PS1       0.035700
     47 H10          0.3830     0.5010     4.5000 h1         1 PS1       0.042200
     48 H11         -0.6940     1.8600     4.1730 h1         1 PS1       0.042200
     49 H12          2.1730     2.9070     1.0870 hc         1 PS1       0.070700
     50 H13          1.9700     1.2280     0.6330 hc         1 PS1       0.070700
     51 H14          4.1360     0.6610     1.7190 hc         1 PS1       0.056200
     52 H15          4.3520     2.3300     2.2130 hc         1 PS1       0.056200
     53 H16          4.3650     3.0480    -0.1790 hc         1 PS1       0.045700
     54 H17          4.1640     1.3790    -0.6860 hc         1 PS1       0.045700
     55 H18          6.3040     0.7610     0.3810 hc         1 PS1       0.030700
     56 H19          6.5330     2.4090     0.9340 hc         1 PS1       0.030700
     57 H20          6.5410     3.1890    -1.4570 hc         1 PS1       0.050200
     58 H21          6.3320     1.5260    -1.9780 hc         1 PS1       0.050200
     59 H22          8.5070     0.9130    -0.9360 hc         1 PS1       0.028700
     60 H23          8.7090     2.5500    -0.3500 hc         1 PS1       0.028700
     61 H24          8.7320     3.3990    -2.7000 hc         1 PS1       0.038700
     62 H25          8.5150     1.7700    -3.2980 hc         1 PS1       0.038700
     63 H26         10.6850     1.0950    -2.2620 hc         1 PS1       0.030700
     64 H27         10.8980     2.7140    -1.6380 hc         1 PS1       0.030700
     65 H28         12.2010     2.3990    -3.7540 hc         1 PS1       0.022700
     66 H29         10.7170     2.0030    -4.6170 hc         1 PS1       0.022700
     67 H30         10.9560     3.6250    -3.9760 hc         1 PS1       0.022700
     68 H31         -3.8870     1.9110     1.1320 hc         1 PS1       0.079200
     69 H32         -3.6910     0.4160     0.2600 hc         1 PS1       0.079200
     70 H33         -5.8920    -0.4090     1.2010 hc         1 PS1       0.045700
     71 H34         -6.1040     1.1330     2.0050 hc         1 PS1       0.045700
     72 H35         -6.0130     2.2870    -0.2300 hc         1 PS1       0.040200
     73 H36         -5.8270     0.7310    -1.0100 hc         1 PS1       0.040200
     74 H37         -8.0460     0.0120    -0.0630 hc         1 PS1       0.034700
     75 H38         -8.2310     1.5910     0.6680 hc         1 PS1       0.034700
     76 H39         -8.1270     2.6470    -1.6080 hc         1 PS1       0.038200
     77 H40         -7.9580     1.0610    -2.3280 hc         1 PS1       0.038200
     78 H41        -10.1890     0.4030    -1.3840 hc         1 PS1       0.034200
     79 H42        -10.3580     1.9980    -0.6830 hc         1 PS1       0.034200
     80 H43        -10.2470     3.0130    -2.9730 hc         1 PS1       0.037700
     81 H44        -10.0790     1.4170    -3.6700 hc         1 PS1       0.037700
     82 H45        -12.3140     0.7770    -2.7400 hc         1 PS1       0.034200
     83 H46        -12.4810     2.3720    -2.0450 hc         1 PS1       0.034200
     84 H47        -13.7120     2.2140    -4.2200 hc         1 PS1       0.028033
     85 H48        -12.4110     3.3940    -4.3370 hc         1 PS1       0.028033
     86 H49        -12.2140     1.7950    -5.0460 hc         1 PS1       0.028033
@<TRIPOS>BOND
     1     1     3 1   
     2     2     3 1   
     3     3     4 1   
     4     3    11 1   
     5     4     5 1   
     6     5     6 1   
     7     5    39 1   
     8     5    40 1   
     9     6     7 1   
    10     6    10 1   
    11     6    41 1   
    12     7     8 1   
    13     7     9 1   
    14    10    42 1   
    15    10    43 1   
    16    11    12 1   
    17    12    13 1   
    18    12    44 1   
    19    12    45 1   
    20    13    14 1   
    21    13    27 1   
    22    13    46 1   
    23    14    15 1   
    24    14    47 1   
    25    14    48 1   
    26    15    16 1   
    27    16    17 2   
    28    16    18 1   
    29    18    19 1   
    30    18    49 1   
    31    18    50 1   
    32    19    20 1   
    33    19    51 1   
    34    19    52 1   
    35    20    21 1   
    36    20    53 1   
    37    20    54 1   
    38    21    22 1   
    39    21    55 1   
    40    21    56 1   
    41    22    23 1   
    42    22    57 1   
    43    22    58 1   
    44    23    24 1   
    45    23    59 1   
    46    23    60 1   
    47    24    25 1   
    48    24    61 1   
    49    24    62 1   
    50    25    26 1   
    51    25    63 1   
    52    25    64 1   
    53    26    65 1   
    54    26    66 1   
    55    26    67 1   
    56    27    28 1   
    57    28    29 2   
    58    28    30 1   
    59    30    31 1   
    60    30    68 1   
    61    30    69 1   
    62    31    32 1   
    63    31    70 1   
    64    31    71 1   
    65    32    33 1   
    66    32    72 1   
    67    32    73 1   
    68    33    34 1   
    69    33    74 1   
    70    33    75 1   
    71    34    35 1   
    72    34    76 1   
    73    34    77 1   
    74    35    36 1   
    75    35    78 1   
    76    35    79 1   
    77    36    37 1   
    78    36    80 1   
    79    36    81 1   
    80    37    38 1   
    81    37    82 1   
    82    37    83 1   
    83    38    84 1   
    84    38    85 1   
    85    38    86 1   
@<TRIPOS>SUBSTRUCTURE
     1 PS1         1 TEMP              0 ****  ****    0 ROOT
