@<TRIPOS>MOLECULE
PS2
  128   127     1     0     0
SMALL
abcg2


@<TRIPOS>ATOM
      1 C48        -18.9810     6.3380    -0.0190 c3         1 PS2      -0.088100
      2 C47        -18.2380     5.0320     0.2290 c3         1 PS2      -0.075400
      3 C46        -16.7600     5.1130    -0.1300 c3         1 PS2      -0.075400
      4 C45        -16.0100     3.8070     0.1040 c3         1 PS2      -0.074400
      5 C44        -14.5370     3.8830    -0.2750 c3         1 PS2      -0.074400
      6 C43        -13.7960     2.5680    -0.0690 c3         1 PS2      -0.073400
      7 C42        -12.3320     2.6390    -0.4840 c3         1 PS2      -0.076400
      8 C41        -11.6290     1.2970    -0.3220 c3         1 PS2      -0.075400
      9 C40        -10.1420     1.3230    -0.6270 c3         1 PS2       0.110300
     10 BR2         -9.8350     1.6740    -2.5510 br         1 PS2      -0.259000
     11 C39         -9.3660     0.1000    -0.1690 c3         1 PS2       0.113300
     12 BR1        -10.0550    -1.5400    -1.0350 br         1 PS2      -0.263000
     13 C38         -7.8590     0.1910    -0.3310 c3         1 PS2      -0.076400
     14 C37         -7.0760    -0.8790     0.4180 c3         1 PS2      -0.076400
     15 C36         -5.5700    -0.6890     0.2850 c3         1 PS2      -0.075400
     16 C35         -4.7720    -1.7780     0.9910 c3         1 PS2      -0.073400
     17 C34         -3.2660    -1.5990     0.8550 c3         1 PS2      -0.077400
     18 C33         -2.4770    -2.7080     1.5400 c3         1 PS2      -0.065400
     19 C32         -0.9760    -2.4950     1.4210 c3         1 PS2      -0.144400
     20 C31         -0.1610    -3.5800     2.0700 c          1 PS2       0.602100
     21 O31         -0.5680    -4.6830     2.3380 o          1 PS2      -0.530000
     22 O2           1.0860    -3.1790     2.3030 os         1 PS2      -0.405100
     23 C2           2.0190    -4.0970     2.8850 c3         1 PS2       0.152300
     24 C1           2.6940    -4.9370     1.8150 c3         1 PS2       0.221600
     25 O3P          3.3140    -4.1490     0.8280 os         1 PS2      -0.555400
     26 P            4.9270    -4.3380     0.5760 p5         1 PS2       1.390800
     27 O1P          5.6920    -4.1170     1.8480 o          1 PS2      -0.843500
     28 O2P          5.1740    -5.5950    -0.2060 o          1 PS2      -0.843500
     29 O4P          5.0160    -3.0350    -0.4090 os         1 PS2      -0.592400
     30 C4           6.2740    -2.7560    -1.0050 c3         1 PS2       0.224600
     31 C5           6.2140    -1.4240    -1.7310 c3         1 PS2       0.008500
     32 C6           7.6160    -1.0350    -2.2780 c          1 PS2       0.687000
     33 O7           7.6490    -0.4620    -3.3850 o          1 PS2      -0.752500
     34 O6           8.5960    -1.2920    -1.5490 o          1 PS2      -0.752500
     35 N5           5.1470    -1.4320    -2.7200 n8         1 PS2      -0.965200
     36 C3           2.9510    -3.3000     3.7700 c3         1 PS2       0.176600
     37 O3           3.6010    -2.2860     3.0190 os         1 PS2      -0.410100
     38 C11          4.7870    -1.8610     3.4440 c          1 PS2       0.636100
     39 O11          5.2640    -2.1880     4.5030 o          1 PS2      -0.532000
     40 C12          5.4090    -0.8900     2.4800 c3         1 PS2      -0.127400
     41 C13          6.8590    -0.5690     2.8050 c3         1 PS2      -0.058400
     42 C14          7.5290     0.2380     1.7010 c3         1 PS2      -0.088400
     43 C15          8.9290     0.7100     2.0710 c3         1 PS2      -0.057400
     44 C16          9.6420     1.4090     0.9200 c3         1 PS2      -0.089400
     45 C17         11.0360     1.9020     1.2870 c3         1 PS2      -0.065400
     46 C18         11.7600     2.5790     0.1310 c3         1 PS2      -0.078400
     47 C19         13.1450     3.0940     0.5050 c3         1 PS2      -0.072400
     48 C20         13.8730     3.7640    -0.6530 c3         1 PS2      -0.076400
     49 C21         15.2540     4.2870    -0.2750 c3         1 PS2      -0.073400
     50 C22         15.9820     4.9540    -1.4350 c3         1 PS2      -0.075400
     51 C23         17.3640     5.4760    -1.0590 c3         1 PS2      -0.074400
     52 C24         18.0910     6.1430    -2.2200 c3         1 PS2      -0.076400
     53 C25         19.4770     6.6550    -1.8510 c3         1 PS2      -0.075400
     54 C26         20.1890     7.3270    -3.0170 c3         1 PS2      -0.088100
     55 H481       -18.5500     7.1530     0.5660 hc         1 PS2       0.030033
     56 H482       -18.9300     6.6270    -1.0700 hc         1 PS2       0.030033
     57 H483       -20.0340     6.2590     0.2520 hc         1 PS2       0.030033
     58 H471       -18.7060     4.2280    -0.3490 hc         1 PS2       0.035700
     59 H472       -18.3400     4.7460     1.2800 hc         1 PS2       0.035700
     60 H461       -16.2880     5.9140     0.4500 hc         1 PS2       0.037700
     61 H462       -16.6590     5.4040    -1.1820 hc         1 PS2       0.037700
     62 H451       -16.4900     3.0070    -0.4710 hc         1 PS2       0.036700
     63 H452       -16.1020     3.5190     1.1570 hc         1 PS2       0.036700
     64 H441       -14.0500     4.6720     0.3090 hc         1 PS2       0.038700
     65 H442       -14.4480     4.1860    -1.3240 hc         1 PS2       0.038700
     66 H431       -14.2950     1.7790    -0.6430 hc         1 PS2       0.038700
     67 H432       -13.8670     2.2680     0.9820 hc         1 PS2       0.038700
     68 H421       -11.8160     3.3990     0.1120 hc         1 PS2       0.046700
     69 H422       -12.2730     2.9700    -1.5240 hc         1 PS2       0.046700
     70 H411       -12.1340     0.5370    -0.9220 hc         1 PS2       0.057200
     71 H412       -11.7190     0.9760     0.7230 hc         1 PS2       0.057200
     72 H40         -9.6850     2.1760    -0.1160 h1         1 PS2       0.079700
     73 H39         -9.6090    -0.0260     0.8910 h1         1 PS2       0.076700
     74 H381        -7.5690     1.1740     0.0570 hc         1 PS2       0.059200
     75 H382        -7.5840     0.1840    -1.3880 hc         1 PS2       0.059200
     76 H371        -7.3430    -1.8720     0.0450 hc         1 PS2       0.044700
     77 H372        -7.3560    -0.8620     1.4770 hc         1 PS2       0.044700
     78 H361        -5.2860     0.2900     0.6850 hc         1 PS2       0.040200
     79 H362        -5.2990    -0.6730    -0.7770 hc         1 PS2       0.040200
     80 H351        -5.0600    -2.7550     0.5870 hc         1 PS2       0.036200
     81 H352        -5.0420    -1.7960     2.0520 hc         1 PS2       0.036200
     82 H341        -2.9740    -0.6300     1.2730 hc         1 PS2       0.040700
     83 H342        -2.9960    -1.5650    -0.2070 hc         1 PS2       0.040700
     84 H331        -2.7530    -3.6710     1.1040 hc         1 PS2       0.045200
     85 H332        -2.7590    -2.7550     2.5960 hc         1 PS2       0.045200
     86 H321        -0.6860    -1.5280     1.8380 hc         1 PS2       0.078200
     87 H322        -0.6820    -2.4610     0.3650 hc         1 PS2       0.078200
     88 H2           1.4990    -4.7930     3.5510 h1         1 PS2       0.037700
     89 H11          3.3920    -5.6080     2.3300 h1         1 PS2       0.024700
     90 H12          1.9450    -5.5770     1.3390 h1         1 PS2       0.024700
     91 H41          7.0590    -2.7150    -0.2480 h1         1 PS2       0.027700
     92 H42          6.5370    -3.5510    -1.7170 h1         1 PS2       0.027700
     93 H5           5.9650    -0.6560    -0.9830 h1         1 PS2       0.038700
     94 HN51         5.2680    -0.6120    -3.3030 hn         1 PS2       0.367000
     95 HN52         5.3020    -2.2100    -3.3540 hn         1 PS2       0.367000
     96 H31          3.6720    -3.9900     4.2110 h1         1 PS2       0.042200
     97 H32          2.3840    -2.8470     4.5880 h1         1 PS2       0.042200
     98 H121         4.8050     0.0240     2.4900 hc         1 PS2       0.080700
     99 H122         5.3180    -1.2980     1.4730 hc         1 PS2       0.080700
    100 H131         7.4120    -1.5010     2.9480 hc         1 PS2       0.042700
    101 H132         6.9150    -0.0250     3.7520 hc         1 PS2       0.042700
    102 H141         6.9120     1.1070     1.4430 hc         1 PS2       0.061200
    103 H142         7.5930    -0.3710     0.7940 hc         1 PS2       0.061200
    104 H151         9.5270    -0.1490     2.3970 hc         1 PS2       0.018200
    105 H152         8.8730     1.3840     2.9340 hc         1 PS2       0.018200
    106 H161         9.0380     2.2590     0.5810 hc         1 PS2       0.063700
    107 H162         9.7000     0.7210     0.0700 hc         1 PS2       0.063700
    108 H171        11.6370     1.0580     1.6460 hc         1 PS2       0.021700
    109 H172        10.9640     2.6000     2.1280 hc         1 PS2       0.021700
    110 H181        11.1530     3.4130    -0.2400 hc         1 PS2       0.046200
    111 H182        11.8480     1.8750    -0.7040 hc         1 PS2       0.046200
    112 H191        13.7510     2.2620     0.8820 hc         1 PS2       0.028200
    113 H192        13.0540     3.8030     1.3360 hc         1 PS2       0.028200
    114 H201        13.2640     4.5920    -1.0340 hc         1 PS2       0.040200
    115 H202        13.9690     3.0530    -1.4800 hc         1 PS2       0.040200
    116 H211        15.8620     3.4600     0.1090 hc         1 PS2       0.032200
    117 H212        15.1570     5.0000     0.5510 hc         1 PS2       0.032200
    118 H221        15.3740     5.7810    -1.8180 hc         1 PS2       0.037700
    119 H222        16.0780     4.2400    -2.2600 hc         1 PS2       0.037700
    120 H231        17.9720     4.6490    -0.6760 hc         1 PS2       0.034200
    121 H232        17.2690     6.1900    -0.2330 hc         1 PS2       0.034200
    122 H241        17.4860     6.9750    -2.5980 hc         1 PS2       0.037200
    123 H242        18.1780     5.4320    -3.0490 hc         1 PS2       0.037200
    124 H251        20.0830     5.8230    -1.4790 hc         1 PS2       0.034700
    125 H252        19.3920     7.3620    -1.0200 hc         1 PS2       0.034700
    126 H261        21.1850     7.6720    -2.7360 hc         1 PS2       0.028033
    127 H262        20.3020     6.6420    -3.8600 hc         1 PS2       0.028033
    128 H263        19.6280     8.1940    -3.3720 hc         1 PS2       0.028033
@<TRIPOS>BOND
     1     1     2 1   
     2     1    55 1   
     3     1    56 1   
     4     1    57 1   
     5     2     3 1   
     6     2    58 1   
     7     2    59 1   
     8     3     4 1   
     9     3    60 1   
    10     3    61 1   
    11     4     5 1   
    12     4    62 1   
    13     4    63 1   
    14     5     6 1   
    15     5    64 1   
    16     5    65 1   
    17     6     7 1   
    18     6    66 1   
    19     6    67 1   
    20     7     8 1   
    21     7    68 1   
    22     7    69 1   
    23     8     9 1   
    24     8    70 1   
    25     8    71 1   
    26     9    10 1   
    27     9    11 1   
    28     9    72 1   
    29    11    12 1   
    30    11    13 1   
    31    11    73 1   
    32    13    14 1   
    33    13    74 1   
    34    13    75 1   
    35    14    15 1   
    36    14    76 1   
    37    14    77 1   
    38    15    16 1   
    39    15    78 1   
    40    15    79 1   
    41    16    17 1   
    42    16    80 1   
    43    16    81 1   
    44    17    18 1   
    45    17    82 1   
    46    17    83 1   
    47    18    19 1   
    48    18    84 1   
    49    18    85 1   
    50    19    20 1   
    51    19    86 1   
    52    19    87 1   
    53    20    21 2   
    54    20    22 1   
    55    22    23 1   
    56    23    24 1   
    57    23    36 1   
    58    23    88 1   
    59    24    25 1   
    60    24    89 1   
    61    24    90 1   
    62    25    26 1   
    63    26    27 1   
    64    26    28 1   
    65    26    29 1   
    66    29    30 1   
    67    30    31 1   
    68    30    91 1   
    69    30    92 1   
    70    31    32 1   
    71    31    35 1   
    72    31    93 1   
    73    32    33 1   
    74    32    34 1   
    75    35    94 1   
    76    35    95 1   
    77    36    37 1   
    78    36    96 1   
    79    36    97 1   
    80    37    38 1   
    81    38    39 2   
    82    38    40 1   
    83    40    41 1   
    84    40    98 1   
    85    40    99 1   
    86    41    42 1   
    87    41   100 1   
    88    41   101 1   
    89    42    43 1   
    90    42   102 1   
    91    42   103 1   
    92    43    44 1   
    93    43   104 1   
    94    43   105 1   
    95    44    45 1   
    96    44   106 1   
    97    44   107 1   
    98    45    46 1   
    99    45   108 1   
   100    45   109 1   
   101    46    47 1   
   102    46   110 1   
   103    46   111 1   
   104    47    48 1   
   105    47   112 1   
   106    47   113 1   
   107    48    49 1   
   108    48   114 1   
   109    48   115 1   
   110    49    50 1   
   111    49   116 1   
   112    49   117 1   
   113    50    51 1   
   114    50   118 1   
   115    50   119 1   
   116    51    52 1   
   117    51   120 1   
   118    51   121 1   
   119    52    53 1   
   120    52   122 1   
   121    52   123 1   
   122    53    54 1   
   123    53   124 1   
   124    53   125 1   
   125    54   126 1   
   126    54   127 1   
   127    54   128 1   
@<TRIPOS>SUBSTRUCTURE
     1 PS2         1 TEMP              0 ****  ****    0 ROOT
