@<TRIPOS>MOLECULE
PS2
  128   127     1     0     0
SMALL
No Charge or Current Charge


@<TRIPOS>ATOM
      1 C48        -15.8080     8.4420    -0.4290 c3         1 PS2      -0.088100
      2 C47        -15.2010     7.2050     0.2600 c3         1 PS2      -0.075400
      3 C46        -14.0460     6.5710    -0.5450 c3         1 PS2      -0.075400
      4 C45        -13.4370     5.3300     0.1440 c3         1 PS2      -0.074400
      5 C44        -12.2800     4.6980    -0.6610 c3         1 PS2      -0.074400
      6 C43        -11.6740     3.4550     0.0260 c3         1 PS2      -0.073400
      7 C42        -10.5160     2.8250    -0.7800 c3         1 PS2      -0.076400
      8 C41         -9.9140     1.5760    -0.0910 c3         1 PS2      -0.075400
      9 C40         -8.7090     0.9540    -0.8440 c3         1 PS2       0.110300
     10 Br2         -9.2750     0.2560    -2.6360 br         1 PS2      -0.259000
     11 C39         -7.9660    -0.1350    -0.0170 c3         1 PS2       0.113300
     12 Br1         -9.1460    -1.7170     0.3370 br         1 PS2      -0.263000
     13 C38         -6.6260    -0.5830    -0.6600 c3         1 PS2      -0.076400
     14 C37         -5.7510    -1.4730     0.2560 c3         1 PS2      -0.076400
     15 C36         -4.4020    -1.8570    -0.3900 c3         1 PS2      -0.075400
     16 C35         -3.5320    -2.7520     0.5200 c3         1 PS2      -0.073400
     17 C34         -2.1850    -3.1450    -0.1270 c3         1 PS2      -0.077400
     18 C33         -1.3220    -4.0470     0.7810 c3         1 PS2      -0.065400
     19 C32          0.0240    -4.4500     0.1330 c3         1 PS2      -0.144400
     20 C31          0.8400    -5.3490     1.0620 c          1 PS2       0.602100
     21 O31          0.6670    -6.5580     1.1480 o          1 PS2      -0.530000
     22 O2           1.6380    -4.6130     1.8980 os         1 PS2      -0.405100
     23 C2           2.4770    -5.2920     2.8680 c3         1 PS2       0.152300
     24 C1           3.5850    -6.1600     2.1740 c3         1 PS2       0.221600
     25 O3P          4.2900    -5.4930     1.1080 os         1 PS2      -0.555400
     26 P            5.6390    -4.6340     1.3350 p5         1 PS2       1.390800
     27 O1P          6.1140    -4.7440     2.7480 o          1 PS2      -0.843500
     28 O2P          6.7330    -5.0360     0.4000 o          1 PS2      -0.843500
     29 O4P          5.1060    -3.1390     1.0410 os         1 PS2      -0.592400
     30 C4           5.0230    -2.5510    -0.2710 c3         1 PS2       0.224600
     31 C5           3.8510    -3.1430    -1.1200 c3         1 PS2       0.008500
     32 C6           3.2370    -1.9680    -1.9730 c          1 PS2       0.687000
     33 O7           2.0710    -1.6530    -1.7810 o          1 PS2      -0.752500
     34 O6           3.9180    -1.4810    -2.8670 o          1 PS2      -0.752500
     35 N5           4.2360    -4.3720    -1.9250 n8         1 PS2      -0.965200
     36 C3           2.9450    -4.2800     3.9500 c3         1 PS2       0.176600
     37 O3           3.3840    -3.0520     3.3470 os         1 PS2      -0.410100
     38 C11          3.8170    -2.0480     4.1690 c          1 PS2       0.636100
     39 O11          3.7910    -2.0970     5.3940 o          1 PS2      -0.532000
     40 C12          4.2040    -0.7910     3.3840 c3         1 PS2      -0.127400
     41 C13          5.7380    -0.6020     3.3340 c3         1 PS2      -0.058400
     42 C14          6.1720     0.5900     2.4540 c3         1 PS2      -0.088400
     43 C15          7.7050     0.7660     2.3930 c3         1 PS2      -0.057400
     44 C16          8.1440     1.9530     1.5070 c3         1 PS2      -0.089400
     45 C17          9.6780     2.1210     1.4410 c3         1 PS2      -0.065400
     46 C18         10.1200     3.3040     0.5530 c3         1 PS2      -0.078400
     47 C19         11.6550     3.4630     0.4800 c3         1 PS2      -0.072400
     48 C20         12.0990     4.6430    -0.4130 c3         1 PS2      -0.076400
     49 C21         13.6340     4.7950    -0.4920 c3         1 PS2      -0.073400
     50 C22         14.0800     5.9710    -1.3870 c3         1 PS2      -0.075400
     51 C23         15.6150     6.1190    -1.4710 c3         1 PS2      -0.074400
     52 C24         16.0610     7.2940    -2.3680 c3         1 PS2      -0.076400
     53 C25         17.5960     7.4400    -2.4540 c3         1 PS2      -0.075400
     54 C26         18.0430     8.6110    -3.3500 c3         1 PS2      -0.088100
     55 H481       -15.0500     9.2220    -0.5650 hc         1 PS2       0.030033
     56 H482       -16.2150     8.1780    -1.4120 hc         1 PS2       0.030033
     57 H483       -16.6220     8.8570     0.1790 hc         1 PS2       0.030033
     58 H471       -15.9900     6.4590     0.4130 hc         1 PS2       0.035700
     59 H472       -14.8360     7.4940     1.2540 hc         1 PS2       0.035700
     60 H461       -13.2590     7.3210    -0.6980 hc         1 PS2       0.037700
     61 H462       -14.4140     6.2860    -1.5390 hc         1 PS2       0.037700
     62 H451       -14.2230     4.5800     0.2950 hc         1 PS2       0.036700
     63 H452       -13.0700     5.6140     1.1390 hc         1 PS2       0.036700
     64 H441       -11.4930     5.4480    -0.8090 hc         1 PS2       0.038700
     65 H442       -12.6470     4.4170    -1.6560 hc         1 PS2       0.038700
     66 H431       -12.4610     2.7050     0.1730 hc         1 PS2       0.038700
     67 H432       -11.3090     3.7370     1.0220 hc         1 PS2       0.038700
     68 H421        -9.7270     3.5740    -0.9220 hc         1 PS2       0.046700
     69 H422       -10.8860     2.5570    -1.7770 hc         1 PS2       0.046700
     70 H411       -10.7000     0.8210     0.0310 hc         1 PS2       0.057200
     71 H412        -9.5900     1.8590     0.9180 hc         1 PS2       0.057200
     72 H40         -7.9940     1.7580    -1.0660 h1         1 PS2       0.079700
     73 H39         -7.7460     0.2820     0.9740 h1         1 PS2       0.076700
     74 H381        -6.0490     0.3100    -0.9290 hc         1 PS2       0.059200
     75 H382        -6.8290    -1.1210    -1.5940 hc         1 PS2       0.059200
     76 H371        -6.2940    -2.3910     0.5100 hc         1 PS2       0.044700
     77 H372        -5.5610    -0.9430     1.1980 hc         1 PS2       0.044700
     78 H361        -3.8460    -0.9440    -0.6360 hc         1 PS2       0.040200
     79 H362        -4.5920    -2.3810    -1.3350 hc         1 PS2       0.040200
     80 H351        -4.0900    -3.6630     0.7690 hc         1 PS2       0.036200
     81 H352        -3.3380    -2.2260     1.4630 hc         1 PS2       0.036200
     82 H341        -1.6230    -2.2340    -0.3710 hc         1 PS2       0.040700
     83 H342        -2.3790    -3.6650    -1.0740 hc         1 PS2       0.040700
     84 H331        -1.8870    -4.9550     1.0280 hc         1 PS2       0.045200
     85 H332        -1.1250    -3.5260     1.7260 hc         1 PS2       0.045200
     86 H321         0.5880    -3.5320    -0.0620 hc         1 PS2       0.078200
     87 H322        -0.1730    -4.9870    -0.8020 hc         1 PS2       0.078200
     88 H2           1.8570    -6.0100     3.4210 h1         1 PS2       0.037700
     89 H11          4.2830    -6.5160     2.9430 h1         1 PS2       0.024700
     90 H12          3.1110    -7.0630     1.7710 h1         1 PS2       0.024700
     91 H41          4.8530    -1.4730    -0.1490 h1         1 PS2       0.027700
     92 H42          5.9710    -2.6590    -0.8140 h1         1 PS2       0.027700
     93 H5           3.0650    -3.4530    -0.4180 h1         1 PS2       0.038700
     94 HN51         3.4130    -4.7100    -2.4350 hn         1 PS2       0.367000
     95 HN52         4.8810    -4.0860    -2.6690 hn         1 PS2       0.367000
     96 H31          3.7480    -4.7330     4.5460 h1         1 PS2       0.042200
     97 H32          2.1010    -4.0840     4.6250 h1         1 PS2       0.042200
     98 H121         3.7530     0.0830     3.8670 hc         1 PS2       0.080700
     99 H122         3.8390    -0.8880     2.3550 hc         1 PS2       0.080700
    100 H131         6.2040    -1.5190     2.9510 hc         1 PS2       0.042700
    101 H132         6.1170    -0.4580     4.3540 hc         1 PS2       0.042700
    102 H141         5.7180     1.5110     2.8420 hc         1 PS2       0.061200
    103 H142         5.7870     0.4470     1.4370 hc         1 PS2       0.061200
    104 H151         8.1580    -0.1560     2.0070 hc         1 PS2       0.018200
    105 H152         8.0920     0.9130     3.4090 hc         1 PS2       0.018200
    106 H161         7.6960     2.8770     1.8950 hc         1 PS2       0.063700
    107 H162         7.7530     1.8090     0.4920 hc         1 PS2       0.063700
    108 H171        10.1240     1.1960     1.0550 hc         1 PS2       0.021700
    109 H172        10.0690     2.2670     2.4560 hc         1 PS2       0.021700
    110 H181         9.6800     4.2310     0.9410 hc         1 PS2       0.046200
    111 H182         9.7250     3.1620    -0.4610 hc         1 PS2       0.046200
    112 H191        12.0940     2.5350     0.0940 hc         1 PS2       0.028200
    113 H192        12.0500     3.6090     1.4930 hc         1 PS2       0.028200
    114 H201        11.6640     5.5720    -0.0240 hc         1 PS2       0.040200
    115 H202        11.6990     4.4990    -1.4240 hc         1 PS2       0.040200
    116 H211        14.0680     3.8640    -0.8780 hc         1 PS2       0.032200
    117 H212        14.0340     4.9400     0.5190 hc         1 PS2       0.032200
    118 H221        13.6480     6.9030    -0.9990 hc         1 PS2       0.037700
    119 H222        13.6760     5.8280    -2.3980 hc         1 PS2       0.037700
    120 H231        16.0450     5.1870    -1.8580 hc         1 PS2       0.034200
    121 H232        16.0180     6.2640    -0.4610 hc         1 PS2       0.034200
    122 H241        15.6320     8.2270    -1.9810 hc         1 PS2       0.037200
    123 H242        15.6560     7.1510    -3.3780 hc         1 PS2       0.037200
    124 H251        18.0280     6.5100    -2.8430 hc         1 PS2       0.034700
    125 H252        18.0040     7.5860    -1.4460 hc         1 PS2       0.034700
    126 H261        19.1370     8.6740    -3.3800 hc         1 PS2       0.028033
    127 H262        17.6780     8.4770    -4.3750 hc         1 PS2       0.028033
    128 H263        17.6550     9.5630    -2.9660 hc         1 PS2       0.028033
@<TRIPOS>BOND
     1     1     2 1   
     2     1    55 1   
     3     1    56 1   
     4     1    57 1   
     5     2     3 1   
     6     2    58 1   
     7     2    59 1   
     8     3     4 1   
     9     3    60 1   
    10     3    61 1   
    11     4     5 1   
    12     4    62 1   
    13     4    63 1   
    14     5     6 1   
    15     5    64 1   
    16     5    65 1   
    17     6     7 1   
    18     6    66 1   
    19     6    67 1   
    20     7     8 1   
    21     7    68 1   
    22     7    69 1   
    23     8     9 1   
    24     8    70 1   
    25     8    71 1   
    26     9    10 1   
    27     9    11 1   
    28     9    72 1   
    29    11    12 1   
    30    11    13 1   
    31    11    73 1   
    32    13    14 1   
    33    13    74 1   
    34    13    75 1   
    35    14    15 1   
    36    14    76 1   
    37    14    77 1   
    38    15    16 1   
    39    15    78 1   
    40    15    79 1   
    41    16    17 1   
    42    16    80 1   
    43    16    81 1   
    44    17    18 1   
    45    17    82 1   
    46    17    83 1   
    47    18    19 1   
    48    18    84 1   
    49    18    85 1   
    50    19    20 1   
    51    19    86 1   
    52    19    87 1   
    53    20    21 2   
    54    20    22 1   
    55    22    23 1   
    56    23    24 1   
    57    23    36 1   
    58    23    88 1   
    59    24    25 1   
    60    24    89 1   
    61    24    90 1   
    62    25    26 1   
    63    26    27 1   
    64    26    28 1   
    65    26    29 1   
    66    29    30 1   
    67    30    31 1   
    68    30    91 1   
    69    30    92 1   
    70    31    32 1   
    71    31    35 1   
    72    31    93 1   
    73    32    33 1   
    74    32    34 1   
    75    35    94 1   
    76    35    95 1   
    77    36    37 1   
    78    36    96 1   
    79    36    97 1   
    80    37    38 1   
    81    38    39 2   
    82    38    40 1   
    83    40    41 1   
    84    40    98 1   
    85    40    99 1   
    86    41    42 1   
    87    41   100 1   
    88    41   101 1   
    89    42    43 1   
    90    42   102 1   
    91    42   103 1   
    92    43    44 1   
    93    43   104 1   
    94    43   105 1   
    95    44    45 1   
    96    44   106 1   
    97    44   107 1   
    98    45    46 1   
    99    45   108 1   
   100    45   109 1   
   101    46    47 1   
   102    46   110 1   
   103    46   111 1   
   104    47    48 1   
   105    47   112 1   
   106    47   113 1   
   107    48    49 1   
   108    48   114 1   
   109    48   115 1   
   110    49    50 1   
   111    49   116 1   
   112    49   117 1   
   113    50    51 1   
   114    50   118 1   
   115    50   119 1   
   116    51    52 1   
   117    51   120 1   
   118    51   121 1   
   119    52    53 1   
   120    52   122 1   
   121    52   123 1   
   122    53    54 1   
   123    53   124 1   
   124    53   125 1   
   125    54   126 1   
   126    54   127 1   
   127    54   128 1   
@<TRIPOS>SUBSTRUCTURE
     1 PS2         1 TEMP              0 ****  ****    0 ROOT
