@<TRIPOS>MOLECULE
PS4
   60    62     1     0     0
SMALL
bcc


@<TRIPOS>ATOM
      1 C1          -8.8850    -1.5770    -0.3840 c3         1 PS4      -0.226300
      2 C7           7.5360    -0.8580     0.5170 ca         1 PS4      -0.116000
      3 C8           7.1170     0.3520    -0.0320 ca         1 PS4      -0.076300
      4 C11          9.2830     0.2740     1.7500 ca         1 PS4      -0.120000
      5 C12          8.8620     1.4780     1.2050 ca         1 PS4      -0.116000
      6 C15          3.4260     0.4080    -1.1490 c3         1 PS4      -0.148400
      7 C16          2.1110     0.3040    -0.4060 c          1 PS4       0.694100
      8 C18         -0.0930     1.2170     0.1360 c5         1 PS4       0.092700
      9 C19         -0.9950     0.1520    -0.4900 c3         1 PS4       0.087000
     10 C23          0.5590     3.5080    -0.2400 c5         1 PS4      -0.097400
     11 C24         -0.6650     2.6330    -0.0060 c5         1 PS4      -0.092400
     12 C27         -5.8460     0.6630     2.4630 ca         1 PS4      -0.154000
     13 C30         -5.8880     0.3890    -0.3030 ca         1 PS4       0.015000
     14 C31         -7.0610     0.3750     0.4310 ca         1 PS4      -0.274500
     15 O32         -3.4790     0.9270    -1.6420 o          1 PS4      -0.594100
     16 C28         -4.6710     0.5180     0.3570 ca         1 PS4      -0.170600
     17 C29         -7.0590     0.5160     1.8120 ca         1 PS4      -0.019000
     18 C26         -4.6600     0.6620     1.7420 ca         1 PS4      -0.056000
     19 S4          -8.6090     0.1780    -0.4200 sy         1 PS4       1.087300
     20 O2          -8.4220     0.5890    -1.8100 o          1 PS4      -0.588800
     21 O3          -9.6520     0.8270     0.3710 o          1 PS4      -0.588800
     22 N20         -2.3020     0.1480     0.1290 ns         1 PS4      -0.568900
     23 C22          1.4450     2.6200    -1.0970 c5         1 PS4       0.108000
     24 N17          1.2070     1.2910    -0.5400 n          1 PS4      -0.474800
     25 O5           1.8810    -0.6890     0.2770 o          1 PS4      -0.621100
     26 C14          4.5990     0.4410    -0.1700 c3         1 PS4       0.171500
     27 N21          4.4490     1.5890     0.7060 n8         1 PS4      -0.891800
     28 C13          5.9280     0.3860    -0.9470 c3         1 PS4      -0.074100
     29 C10          7.7890     1.5190     0.3250 ca         1 PS4      -0.135000
     30 C9           8.6080    -0.8830     1.3940 ca         1 PS4       0.032400
     31 CL6          9.1210    -2.4030     2.0570 cl         1 PS4      -0.109400
     32 H1          -8.9510    -1.9110     0.6490 h1         1 PS4       0.103367
     33 H1A         -9.8260    -1.7690    -0.8990 h1         1 PS4       0.103367
     34 H1B         -8.0690    -2.0830    -0.8940 h1         1 PS4       0.103367
     35 H11         10.1200     0.2380     2.4330 ha         1 PS4       0.149000
     36 H12          9.3790     2.3910     1.4690 ha         1 PS4       0.137000
     37 H15          3.5070    -0.4800    -1.7810 hc         1 PS4       0.059700
     38 H15A         3.4820     1.2660    -1.8200 hc         1 PS4       0.059700
     39 H18          0.0650     0.9750     1.1920 h1         1 PS4       0.063700
     40 H19         -1.1110     0.3450    -1.5550 h1         1 PS4       0.075200
     41 H19A        -0.5550    -0.8380    -0.3750 h1         1 PS4       0.075200
     42 H23          0.3210     4.4530    -0.7280 hc         1 PS4       0.055700
     43 H23A         1.0600     3.7330     0.7040 hc         1 PS4       0.055700
     44 H24         -1.3290     2.6870    -0.8730 hc         1 PS4       0.059700
     45 H24A        -1.2410     2.9290     0.8690 hc         1 PS4       0.059700
     46 H27         -5.8220     0.7880     3.5370 ha         1 PS4       0.142000
     47 H30         -5.9080     0.2980    -1.3810 ha         1 PS4       0.179000
     48 H29         -7.9810     0.5210     2.3780 ha         1 PS4       0.156000
     49 H26         -3.7300     0.8030     2.2780 ha         1 PS4       0.135000
     50 HN20        -2.3620    -0.2540     1.0510 hn         1 PS4       0.315500
     51 H22          1.1450     2.6650    -2.1480 h1         1 PS4       0.047700
     52 H22A         2.4910     2.9040    -1.0340 h1         1 PS4       0.047700
     53 H14          4.5400    -0.4540     0.4570 h1         1 PS4       0.085700
     54 HN21         5.1460     1.5730     1.4400 hn         1 PS4       0.342800
     55 HN2A         4.6050     2.4470     0.1890 hn         1 PS4       0.342800
     56 H13          5.9920     1.2560    -1.6080 hc         1 PS4       0.054700
     57 H13A         5.9290    -0.5010    -1.5860 hc         1 PS4       0.054700
     58 H10          7.4780     2.4660    -0.0980 ha         1 PS4       0.130000
     59 C25         -3.4270     0.5540    -0.4790 c          1 PS4       0.679700
     60 H7           7.0280    -1.7770     0.2530 ha         1 PS4       0.150000
@<TRIPOS>BOND
     1     1    19 1   
     2     1    32 1   
     3     1    33 1   
     4     1    34 1   
     5     2     3 ar  
     6     2    30 ar  
     7     2    60 1   
     8     3    28 1   
     9     3    29 ar  
    10     4     5 ar  
    11     4    30 ar  
    12     4    35 1   
    13     5    29 ar  
    14     5    36 1   
    15     6     7 1   
    16     6    26 1   
    17     6    37 1   
    18     6    38 1   
    19     7    24 1   
    20     7    25 2   
    21     8     9 1   
    22     8    11 1   
    23     8    24 1   
    24     8    39 1   
    25     9    22 1   
    26     9    40 1   
    27     9    41 1   
    28    10    11 1   
    29    10    23 1   
    30    10    42 1   
    31    10    43 1   
    32    11    44 1   
    33    11    45 1   
    34    12    17 ar  
    35    12    18 ar  
    36    12    46 1   
    37    13    14 ar  
    38    13    16 ar  
    39    13    47 1   
    40    14    17 ar  
    41    14    19 1   
    42    15    59 2   
    43    16    18 ar  
    44    16    59 1   
    45    17    48 1   
    46    18    49 1   
    47    19    20 2   
    48    19    21 2   
    49    22    50 1   
    50    22    59 1   
    51    23    24 1   
    52    23    51 1   
    53    23    52 1   
    54    26    27 1   
    55    26    28 1   
    56    26    53 1   
    57    27    54 1   
    58    27    55 1   
    59    28    56 1   
    60    28    57 1   
    61    29    58 1   
    62    30    31 1   
@<TRIPOS>SUBSTRUCTURE
     1 PS4         1 TEMP              0 ****  ****    0 ROOT
