@<TRIPOS>MOLECULE
PS4
   60    62     1     0     0
SMALL
No Charge or Current Charge


@<TRIPOS>ATOM
      1 C1          -9.3550    -0.4820    -0.9350 c3         1 PS4      -0.337100
      2 C7           7.5570    -0.4520     1.1040 ca         1 PS4      -0.098000
      3 C8           7.3030     0.4190     0.0250 ca         1 PS4      -0.076300
      4 C11          9.5770     0.7900     1.6540 ca         1 PS4      -0.102000
      5 C12          9.3330     1.6610     0.5780 ca         1 PS4      -0.098000
      6 C15          3.5110     0.2850    -1.0360 c3         1 PS4      -0.148400
      7 C16          2.2020     0.2330    -0.2300 c          1 PS4       0.627100
      8 C18         -0.1700     1.0620     0.1150 c5         1 PS4       0.092700
      9 C19         -1.0040    -0.1650    -0.3410 c3         1 PS4       0.087000
     10 C23          0.3950     3.3630    -0.2900 c5         1 PS4      -0.097400
     11 C24         -0.8160     2.4080    -0.3260 c5         1 PS4      -0.092400
     12 C27         -5.9970    -0.5490     2.4990 ca         1 PS4      -0.136000
     13 C30         -5.9960     0.5280    -0.0930 ca         1 PS4       0.033000
     14 C31         -7.2030     0.4330     0.6310 ca         1 PS4      -0.274500
     15 O32         -3.5010     0.6800    -1.4650 o          1 PS4      -0.594100
     16 C28         -4.7780     0.0880     0.4740 ca         1 PS4      -0.170600
     17 C29         -7.2020    -0.1100     1.9300 ca         1 PS4      -0.001000
     18 C26         -4.7930    -0.4530     1.7830 ca         1 PS4      -0.038000
     19 S4          -8.7470     0.9900    -0.1150 sy         1 PS4       1.056500
     20 O2          -8.4400     1.9620    -1.1720 o          1 PS4      -0.518000
     21 O3          -9.7060     1.3020     0.9530 o          1 PS4      -0.518000
     22 N20         -2.3460    -0.2390     0.2590 ns         1 PS4      -0.501900
     23 C22          1.4540     2.5170    -1.0350 c5         1 PS4       0.108000
     24 N17          1.1680     1.1520    -0.5310 n          1 PS4      -0.407800
     25 O5           2.0110    -0.6740     0.5720 o          1 PS4      -0.621100
     26 C14          4.7380     0.5290    -0.1330 c3         1 PS4       0.171500
     27 N21          4.7500     1.9170     0.3600 n8         1 PS4      -1.002200
     28 C13          6.0720     0.2130    -0.8550 c3         1 PS4      -0.074100
     29 C10          8.2000     1.4750    -0.2340 ca         1 PS4      -0.117000
     30 C9           8.6890    -0.2660     1.9140 ca         1 PS4       0.124000
     31 Cl6          8.9950    -1.3580     3.2580 cl         1 PS4      -0.201000
     32 H1          -9.4990    -1.2600    -0.1780 h1         1 PS4       0.103367
     33 H1A        -10.3040    -0.2340    -1.4220 h1         1 PS4       0.103367
     34 H1B         -8.6100    -0.7950    -1.6730 h1         1 PS4       0.103367
     35 H11         10.4530     0.9320     2.2830 ha         1 PS4       0.131000
     36 H12         10.0200     2.4790     0.3740 ha         1 PS4       0.119000
     37 H15          3.6320    -0.6980    -1.5050 hc         1 PS4       0.059700
     38 H15A         3.4730     1.0370    -1.8310 hc         1 PS4       0.059700
     39 H18         -0.0570     1.0280     1.2080 h1         1 PS4       0.063700
     40 H19         -1.0900    -0.1530    -1.4360 h1         1 PS4       0.075200
     41 H19A        -0.4650    -1.0820    -0.0710 h1         1 PS4       0.075200
     42 H23          0.1990     4.3210    -0.7840 hc         1 PS4       0.055700
     43 H23A         0.7070     3.5760     0.7390 hc         1 PS4       0.055700
     44 H24         -1.2340     2.3470    -1.3380 hc         1 PS4       0.059700
     45 H24A        -1.6240     2.7240     0.3440 hc         1 PS4       0.059700
     46 H27         -5.9970    -0.9670     3.5030 ha         1 PS4       0.124000
     47 H30         -6.0030     0.9450    -1.1000 ha         1 PS4       0.161000
     48 H29         -8.1260    -0.1950     2.5000 ha         1 PS4       0.138000
     49 H26         -3.8830    -0.8040     2.2620 ha         1 PS4       0.117000
     50 HN20        -2.4320    -0.6250     1.1900 hn         1 PS4       0.315500
     51 H22          1.3140     2.5620    -2.1240 h1         1 PS4       0.047700
     52 H22A         2.4690     2.8600    -0.8000 h1         1 PS4       0.047700
     53 H14          4.6620    -0.1440     0.7350 h1         1 PS4       0.085700
     54 HN21         5.5800     2.0370     0.9530 hn         1 PS4       0.398000
     55 HN2A         4.9410     2.5450    -0.4270 hn         1 PS4       0.398000
     56 H13          6.1440     0.8230    -1.7640 hc         1 PS4       0.054700
     57 H13A         6.0490    -0.8290    -1.1970 hc         1 PS4       0.054700
     58 H10          8.0200     2.1550    -1.0640 ha         1 PS4       0.112000
     59 C25         -3.5060     0.2100    -0.3360 c          1 PS4       0.612700
     60 H7           6.8790    -1.2760     1.3140 ha         1 PS4       0.132000
@<TRIPOS>BOND
     1     1    19 1   
     2     1    32 1   
     3     1    33 1   
     4     1    34 1   
     5     2     3 ar  
     6     2    30 ar  
     7     2    60 1   
     8     3    28 1   
     9     3    29 ar  
    10     4     5 ar  
    11     4    30 ar  
    12     4    35 1   
    13     5    29 ar  
    14     5    36 1   
    15     6     7 1   
    16     6    26 1   
    17     6    37 1   
    18     6    38 1   
    19     7    24 1   
    20     7    25 2   
    21     8     9 1   
    22     8    11 1   
    23     8    24 1   
    24     8    39 1   
    25     9    22 1   
    26     9    40 1   
    27     9    41 1   
    28    10    11 1   
    29    10    23 1   
    30    10    42 1   
    31    10    43 1   
    32    11    44 1   
    33    11    45 1   
    34    12    17 ar  
    35    12    18 ar  
    36    12    46 1   
    37    13    14 ar  
    38    13    16 ar  
    39    13    47 1   
    40    14    17 ar  
    41    14    19 1   
    42    15    59 2   
    43    16    18 ar  
    44    16    59 1   
    45    17    48 1   
    46    18    49 1   
    47    19    20 2   
    48    19    21 2   
    49    22    50 1   
    50    22    59 1   
    51    23    24 1   
    52    23    51 1   
    53    23    52 1   
    54    26    27 1   
    55    26    28 1   
    56    26    53 1   
    57    27    54 1   
    58    27    55 1   
    59    28    56 1   
    60    28    57 1   
    61    29    58 1   
    62    30    31 1   
@<TRIPOS>SUBSTRUCTURE
     1 PS4         1 TEMP              0 ****  ****    0 ROOT
