@<TRIPOS>MOLECULE
PS5
    5     4     1     0     0
SMALL
bcc


@<TRIPOS>ATOM
      1 S1          -2.7050     0.3830     0.6740 s          1 PS5      -0.837500
      2 S2          -1.3770    -1.0090    -0.0310 ss         1 PS5       0.003000
      3 S3          -0.0030    -0.1080    -1.3060 ss         1 PS5      -0.331000
      4 S4           1.3800     0.9470    -0.1650 ss         1 PS5       0.003000
      5 S5           2.6970    -0.3510     0.7190 s          1 PS5      -0.837500
@<TRIPOS>BOND
     1     1     2 1   
     2     2     3 1   
     3     3     4 1   
     4     4     5 1   
@<TRIPOS>SUBSTRUCTURE
     1 PS5         1 TEMP              0 ****  ****    0 ROOT
