@<TRIPOS>MOLECULE
PS5
    5     4     1     0     0
SMALL
No Charge or Current Charge


@<TRIPOS>ATOM
      1 S1          -3.3550     0.6650    -0.5570 s          1 PS5      -0.837500
      2 S2          -1.6600     0.3960     0.6320 ss         1 PS5       0.003000
      3 S3           0.0030    -0.0740    -0.5470 ss         1 PS5      -0.331000
      4 S4           1.6440    -0.3250     0.7270 ss         1 PS5       0.003000
      5 S5           3.3600    -0.8000    -0.3640 s          1 PS5      -0.837500
@<TRIPOS>BOND
     1     1     2 1   
     2     2     3 1   
     3     3     4 1   
     4     4     5 1   
@<TRIPOS>SUBSTRUCTURE
     1 PS5         1 TEMP              0 ****  ****    0 ROOT
