@<TRIPOS>MOLECULE
PS6
   86    85     1     0     0
SMALL
No Charge or Current Charge


@<TRIPOS>ATOM
      1 O2          19.8080     0.5650    10.7450 os         1 PS6      -0.593400
      2 O1          20.2620     1.9940     8.7660 os         1 PS6      -0.583400
      3 P           19.9370     0.4580     9.1430 p5         1 PS6       1.410800
      4 O4          21.0250    -0.4720     8.7200 o          1 PS6      -0.847000
      5 O3          18.6280     0.0540     8.5510 o          1 PS6      -0.847000
      6 C2          20.9570     0.3220    11.5720 c3         1 PS6       0.224600
      7 C3          20.6960     0.8540    13.0080 c3         1 PS6       0.155300
      8 O11         19.7170     0.0000    13.6550 os         1 PS6      -0.460100
      9 O12         17.9410     1.3540    13.0890 o          1 PS6      -0.480000
     10 C1          18.3850     0.3140    13.5560 c          1 PS6       0.615100
     11 C4          21.9820     0.8130    13.8660 c3         1 PS6       0.156600
     12 C5          22.7130     1.5010    16.0580 c          1 PS6       0.590100
     13 O51         23.8190     0.9980    15.9090 o          1 PS6      -0.507000
     14 O52         21.7120     1.4640    15.1240 os         1 PS6      -0.440100
     15 C13         17.5060    -0.7590    14.2080 c3         1 PS6      -0.123400
     16 C14         16.9350    -1.7310    13.1460 c3         1 PS6      -0.089400
     17 C15         16.0500    -2.8400    13.7580 c3         1 PS6      -0.049400
     18 N           22.8520     3.7700    10.8400 n8         1 PS6      -1.009200
     19 CA          21.4860     3.5350    10.2110 c3         1 PS6       0.001500
     20 CB          21.5550     2.5670     8.9930 c3         1 PS6       0.254600
     21 C           20.6910     4.8310     9.7940 c          1 PS6       0.707000
     22 OXT         19.6890     5.1290    10.4310 o          1 PS6      -0.754500
     23 O           21.1910     5.5790     8.9630 o          1 PS6      -0.754500
     24 C16         15.4800    -3.8120    12.7010 c3         1 PS6      -0.088400
     25 C17         14.5970    -4.9180    13.3120 c3         1 PS6      -0.079100
     26 C6          22.2570     2.1820    17.3500 c3         1 PS6      -0.141400
     27 C7          21.6850     1.1540    18.3540 c3         1 PS6      -0.067400
     28 C8          21.1950     1.8010    19.6680 c3         1 PS6      -0.075400
     29 C9          20.6220     0.7740    20.6690 c3         1 PS6      -0.074400
     30 C10         20.1310     1.4200    21.9830 c3         1 PS6      -0.074400
     31 C18         19.5590     0.3920    22.9840 c3         1 PS6      -0.074400
     32 C19         19.0680     1.0380    24.2980 c3         1 PS6      -0.074400
     33 C20         18.4960     0.0110    25.2990 c3         1 PS6      -0.074400
     34 C21         18.0050     0.6570    26.6140 c3         1 PS6      -0.074400
     35 C22         17.4330    -0.3700    27.6150 c3         1 PS6      -0.074400
     36 C23         16.9420     0.2750    28.9300 c3         1 PS6      -0.075400
     37 C24         16.3710    -0.7520    29.9310 c3         1 PS6      -0.075400
     38 C25         15.8810    -0.1080    31.2430 c3         1 PS6      -0.088100
     39 H2          21.1740    -0.7530    11.6200 h1         1 PS6       0.024700
     40 H2A         21.8450     0.8210    11.1650 h1         1 PS6       0.024700
     41 H3          20.3640     1.9000    12.9560 h1         1 PS6       0.087700
     42 H4          22.2840    -0.2310    14.0190 h1         1 PS6       0.055200
     43 H4A         22.7900     1.3320    13.3330 h1         1 PS6       0.055200
     44 H13         18.1120    -1.3540    14.9020 hc         1 PS6       0.044200
     45 H13A        16.6740    -0.2780    14.7360 hc         1 PS6       0.044200
     46 H14         16.3490    -1.1620    12.4140 hc         1 PS6       0.099700
     47 H14A        17.7660    -2.1920    12.5960 hc         1 PS6       0.099700
     48 H15         16.6400    -3.4090    14.4880 hc         1 PS6       0.009200
     49 H15A        15.2210    -2.3770    14.3060 hc         1 PS6       0.009200
     50 HA          20.8750     3.0460    10.9790 h1         1 PS6       0.059700
     51 HB          22.2980     1.7840     9.1940 h1         1 PS6       0.014700
     52 HBA         21.8950     3.1110     8.1010 h1         1 PS6       0.014700
     53 H16         14.8880    -3.2480    11.9690 hc         1 PS6       0.073200
     54 H16A        16.3060    -4.2790    12.1510 hc         1 PS6       0.073200
     55 H17         13.7400    -4.4820    13.8400 hc         1 PS6       0.010700
     56 H17A        14.2160    -5.5800    12.5260 hc         1 PS6       0.010700
     57 H17B        15.1720    -5.5230    14.0240 hc         1 PS6       0.010700
     58 H6          23.1100     2.6960    17.8070 hc         1 PS6       0.072700
     59 H6A         21.4570     2.8930    17.1140 hc         1 PS6       0.072700
     60 H7          20.8510     0.6170    17.8830 hc         1 PS6       0.049700
     61 H7A         22.4560     0.4080    18.5840 hc         1 PS6       0.049700
     62 H8          22.0290     2.3360    20.1390 hc         1 PS6       0.037700
     63 H8A         20.4240     2.5470    19.4370 hc         1 PS6       0.037700
     64 H9          19.7890     0.2370    20.1980 hc         1 PS6       0.037200
     65 H9A         21.3930     0.0280    20.9000 hc         1 PS6       0.037200
     66 H10         20.9650     1.9560    22.4540 hc         1 PS6       0.037200
     67 H10A        19.3600     2.1650    21.7510 hc         1 PS6       0.037200
     68 H18         18.7250    -0.1440    22.5130 hc         1 PS6       0.036200
     69 H18A        20.3300    -0.3530    23.2150 hc         1 PS6       0.036200
     70 H19         19.9010     1.5750    24.7690 hc         1 PS6       0.036700
     71 H19A        18.2970     1.7840    24.0670 hc         1 PS6       0.036700
     72 H20         17.6620    -0.5250    24.8290 hc         1 PS6       0.036200
     73 H20A        19.2670    -0.7350    25.5310 hc         1 PS6       0.036200
     74 H21         18.8380     1.1930    27.0840 hc         1 PS6       0.036700
     75 H21A        17.2340     1.4020    26.3830 hc         1 PS6       0.036700
     76 H22         16.5990    -0.9070    27.1440 hc         1 PS6       0.036200
     77 H22A        18.2040    -1.1160    27.8460 hc         1 PS6       0.036200
     78 H23         17.7760     0.8120    29.4000 hc         1 PS6       0.036700
     79 H23A        16.1710     1.0210    28.6990 hc         1 PS6       0.036700
     80 H24         15.5360    -1.2890    29.4650 hc         1 PS6       0.035700
     81 H24A        17.1400    -1.4980    30.1660 hc         1 PS6       0.035700
     82 H25         16.7040     0.4090    31.7520 hc         1 PS6       0.030033
     83 H25A        15.0850     0.6200    31.0440 hc         1 PS6       0.030033
     84 H25B        15.4850    -0.8740    31.9200 hc         1 PS6       0.030033
     85 HN          23.4180     4.3330    10.1920 hn         1 PS6       0.371000
     86 HNA         22.7440     4.3900    11.6530 hn         1 PS6       0.371000
@<TRIPOS>BOND
     1     1     3 1   
     2     1     6 1   
     3     2     3 1   
     4     2    20 1   
     5     3     4 1   
     6     3     5 1   
     7     6     7 1   
     8     6    39 1   
     9     6    40 1   
    10     7     8 1   
    11     7    11 1   
    12     7    41 1   
    13     8    10 1   
    14     9    10 2   
    15    10    15 1   
    16    11    14 1   
    17    11    42 1   
    18    11    43 1   
    19    12    13 2   
    20    12    14 1   
    21    12    26 1   
    22    15    16 1   
    23    15    44 1   
    24    15    45 1   
    25    16    17 1   
    26    16    46 1   
    27    16    47 1   
    28    17    24 1   
    29    17    48 1   
    30    17    49 1   
    31    18    19 1   
    32    18    85 1   
    33    18    86 1   
    34    19    20 1   
    35    19    21 1   
    36    19    50 1   
    37    20    51 1   
    38    20    52 1   
    39    21    22 1   
    40    21    23 1   
    41    24    25 1   
    42    24    53 1   
    43    24    54 1   
    44    25    55 1   
    45    25    56 1   
    46    25    57 1   
    47    26    27 1   
    48    26    58 1   
    49    26    59 1   
    50    27    28 1   
    51    27    60 1   
    52    27    61 1   
    53    28    29 1   
    54    28    62 1   
    55    28    63 1   
    56    29    30 1   
    57    29    64 1   
    58    29    65 1   
    59    30    31 1   
    60    30    66 1   
    61    30    67 1   
    62    31    32 1   
    63    31    68 1   
    64    31    69 1   
    65    32    33 1   
    66    32    70 1   
    67    32    71 1   
    68    33    34 1   
    69    33    72 1   
    70    33    73 1   
    71    34    35 1   
    72    34    74 1   
    73    34    75 1   
    74    35    36 1   
    75    35    76 1   
    76    35    77 1   
    77    36    37 1   
    78    36    78 1   
    79    36    79 1   
    80    37    38 1   
    81    37    80 1   
    82    37    81 1   
    83    38    82 1   
    84    38    83 1   
    85    38    84 1   
@<TRIPOS>SUBSTRUCTURE
     1 PS6         1 TEMP              0 ****  ****    0 ROOT
