@<TRIPOS>MOLECULE
PS6
   86    85     1     0     0
SMALL
abcg2


@<TRIPOS>ATOM
      1 O2          21.3000     0.4750    11.1350 os         1 PS6      -0.593400
      2 O1          20.8760     0.9610     8.7680 os         1 PS6      -0.583400
      3 P           21.8020    -0.0170     9.6560 p5         1 PS6       1.410800
      4 O4          23.2540     0.3180     9.5060 o          1 PS6      -0.847000
      5 O3          21.3370    -1.4130     9.3960 o          1 PS6      -0.847000
      6 C2          21.8600    -0.1370    12.2870 c3         1 PS6       0.224600
      7 C3          21.0010     0.2320    13.4830 c3         1 PS6       0.155300
      8 O11         19.6590    -0.2370    13.2310 os         1 PS6      -0.460100
      9 O12         18.8710     1.8410    12.8320 o          1 PS6      -0.480000
     10 C1          18.7290     0.6390    12.8040 c          1 PS6       0.615100
     11 C4          21.4960    -0.4420    14.7380 c3         1 PS6       0.156600
     12 C5          21.0200    -0.4120    17.0610 c          1 PS6       0.590100
     13 O51         21.7240    -1.3850    17.2170 o          1 PS6      -0.507000
     14 O52         20.8020     0.1450    15.8560 os         1 PS6      -0.440100
     15 C13         17.5280    -0.0790    12.2560 c3         1 PS6      -0.123400
     16 C14         17.8400    -0.6390    10.8590 c3         1 PS6      -0.089400
     17 C15         16.6510    -1.3570    10.2310 c3         1 PS6      -0.049400
     18 N           20.0090     4.5310     9.1210 n8         1 PS6      -1.009200
     19 CA          19.7390     3.0830     9.0910 c3         1 PS6       0.001500
     20 CB          21.0620     2.3850     8.8150 c3         1 PS6       0.254600
     21 C           18.6740     2.6940     8.0340 c          1 PS6       0.707000
     22 OXT         17.6660     2.0550     8.4300 o          1 PS6      -0.754500
     23 O           18.9030     3.0660     6.8540 o          1 PS6      -0.754500
     24 C16         16.9790    -1.9370     8.8560 c3         1 PS6      -0.088400
     25 C17         15.7980    -2.6600     8.2140 c3         1 PS6      -0.079100
     26 C6          20.3030     0.3410    18.1500 c3         1 PS6      -0.141400
     27 C7          20.4080    -0.3160    19.5200 c3         1 PS6      -0.067400
     28 C8          19.7630     0.5200    20.6220 c3         1 PS6      -0.075400
     29 C9          19.8650    -0.1380    21.9950 c3         1 PS6      -0.074400
     30 C10         19.2790     0.7050    23.1250 c3         1 PS6      -0.074400
     31 C18         19.3840     0.0320    24.4920 c3         1 PS6      -0.074400
     32 C19         18.8260     0.8750    25.6360 c3         1 PS6      -0.074400
     33 C20         18.9280     0.1890    26.9970 c3         1 PS6      -0.074400
     34 C21         18.3820     1.0280    28.1490 c3         1 PS6      -0.074400
     35 C22         18.4790     0.3320    29.5050 c3         1 PS6      -0.074400
     36 C23         17.9370     1.1680    30.6620 c3         1 PS6      -0.075400
     37 C24         18.0260     0.4650    32.0150 c3         1 PS6      -0.075400
     38 C25         17.4830     1.3100    33.1650 c3         1 PS6      -0.088100
     39 H2          21.8810    -1.2250    12.1680 h1         1 PS6       0.024700
     40 H2A         22.8810     0.2180    12.4540 h1         1 PS6       0.024700
     41 H3          20.9770     1.3130    13.6110 h1         1 PS6       0.087700
     42 H4          21.3020    -1.5130    14.7060 h1         1 PS6       0.055200
     43 H4A         22.5690    -0.2800    14.8570 h1         1 PS6       0.055200
     44 H13         17.2550    -0.8950    12.9290 hc         1 PS6       0.044200
     45 H13A        16.7010     0.6290    12.2080 hc         1 PS6       0.044200
     46 H14         18.1510     0.1810    10.2070 hc         1 PS6       0.099700
     47 H14A        18.6860    -1.3270    10.9330 hc         1 PS6       0.099700
     48 H15         16.3150    -2.1620    10.8940 hc         1 PS6       0.009200
     49 H15A        15.8100    -0.6600    10.1390 hc         1 PS6       0.009200
     50 HA          19.3810     2.7810    10.0760 h1         1 PS6       0.059700
     51 HB          21.7820     2.6520     9.5880 h1         1 PS6       0.014700
     52 HBA         21.4540     2.7080     7.8470 h1         1 PS6       0.014700
     53 H16         17.3170    -1.1300     8.1980 hc         1 PS6       0.073200
     54 H16A        17.8240    -2.6270     8.9530 hc         1 PS6       0.073200
     55 H17         14.9520    -1.9820     8.0770 hc         1 PS6       0.010700
     56 H17A        16.0630    -3.0660     7.2350 hc         1 PS6       0.010700
     57 H17B        15.4590    -3.4900     8.8400 hc         1 PS6       0.010700
     58 H6          20.7270     1.3500    18.1700 hc         1 PS6       0.072700
     59 H6A         19.2600     0.4630    17.8450 hc         1 PS6       0.072700
     60 H7          19.9400    -1.3040    19.4860 hc         1 PS6       0.049700
     61 H7A         21.4620    -0.4810    19.7600 hc         1 PS6       0.049700
     62 H8          20.2420     1.5050    20.6540 hc         1 PS6       0.037700
     63 H8A         18.7090     0.6980    20.3800 hc         1 PS6       0.037700
     64 H9          19.3590    -1.1090    21.9680 hc         1 PS6       0.037200
     65 H9A         20.9190    -0.3480    22.2140 hc         1 PS6       0.037200
     66 H10         19.7930     1.6720    23.1580 hc         1 PS6       0.037200
     67 H10A        18.2270     0.9240    22.9080 hc         1 PS6       0.037200
     68 H18         18.8570    -0.9280    24.4620 hc         1 PS6       0.036200
     69 H18A        20.4350    -0.2020    24.6980 hc         1 PS6       0.036200
     70 H19         19.3580     1.8330    25.6720 hc         1 PS6       0.036700
     71 H19A        17.7760     1.1150    25.4310 hc         1 PS6       0.036700
     72 H20         18.3910    -0.7650    26.9600 hc         1 PS6       0.036200
     73 H20A        19.9770    -0.0580    27.1970 hc         1 PS6       0.036200
     74 H21         18.9240     1.9800    28.1920 hc         1 PS6       0.036700
     75 H21A        17.3350     1.2820    27.9470 hc         1 PS6       0.036700
     76 H22         17.9340    -0.6180    29.4610 hc         1 PS6       0.036200
     77 H22A        19.5260     0.0760    29.7040 hc         1 PS6       0.036200
     78 H23         18.4860     2.1160    30.7110 hc         1 PS6       0.036700
     79 H23A        16.8920     1.4310    30.4600 hc         1 PS6       0.036700
     80 H24         17.4750    -0.4800    31.9640 hc         1 PS6       0.035700
     81 H24A        19.0700     0.2010    32.2140 hc         1 PS6       0.035700
     82 H25         18.0400     2.2470    33.2580 hc         1 PS6       0.030033
     83 H25A        16.4330     1.5640    33.0020 hc         1 PS6       0.030033
     84 H25B        17.5560     0.7830    34.1190 hc         1 PS6       0.030033
     85 HN          20.1200     4.8440     8.1600 hn         1 PS6       0.371000
     86 HNA         19.1890     5.0140     9.4730 hn         1 PS6       0.371000
@<TRIPOS>BOND
     1     1     3 1   
     2     1     6 1   
     3     2     3 1   
     4     2    20 1   
     5     3     4 1   
     6     3     5 1   
     7     6     7 1   
     8     6    39 1   
     9     6    40 1   
    10     7     8 1   
    11     7    11 1   
    12     7    41 1   
    13     8    10 1   
    14     9    10 2   
    15    10    15 1   
    16    11    14 1   
    17    11    42 1   
    18    11    43 1   
    19    12    13 2   
    20    12    14 1   
    21    12    26 1   
    22    15    16 1   
    23    15    44 1   
    24    15    45 1   
    25    16    17 1   
    26    16    46 1   
    27    16    47 1   
    28    17    24 1   
    29    17    48 1   
    30    17    49 1   
    31    18    19 1   
    32    18    85 1   
    33    18    86 1   
    34    19    20 1   
    35    19    21 1   
    36    19    50 1   
    37    20    51 1   
    38    20    52 1   
    39    21    22 1   
    40    21    23 1   
    41    24    25 1   
    42    24    53 1   
    43    24    54 1   
    44    25    55 1   
    45    25    56 1   
    46    25    57 1   
    47    26    27 1   
    48    26    58 1   
    49    26    59 1   
    50    27    28 1   
    51    27    60 1   
    52    27    61 1   
    53    28    29 1   
    54    28    62 1   
    55    28    63 1   
    56    29    30 1   
    57    29    64 1   
    58    29    65 1   
    59    30    31 1   
    60    30    66 1   
    61    30    67 1   
    62    31    32 1   
    63    31    68 1   
    64    31    69 1   
    65    32    33 1   
    66    32    70 1   
    67    32    71 1   
    68    33    34 1   
    69    33    72 1   
    70    33    73 1   
    71    34    35 1   
    72    34    74 1   
    73    34    75 1   
    74    35    36 1   
    75    35    76 1   
    76    35    77 1   
    77    36    37 1   
    78    36    78 1   
    79    36    79 1   
    80    37    38 1   
    81    37    80 1   
    82    37    81 1   
    83    38    82 1   
    84    38    83 1   
    85    38    84 1   
@<TRIPOS>SUBSTRUCTURE
     1 PS6         1 TEMP              0 ****  ****    0 ROOT
