@<TRIPOS>MOLECULE
PS8
   56    59     1     0     0
SMALL
No Charge or Current Charge


@<TRIPOS>ATOM
      1 CAA         -5.4780     1.9780    -1.2610 c3         1 PS8      -0.124400
      2 CAB         -2.8610     0.3400     2.8860 c3         1 PS8      -0.035800
      3 CAC         -2.6260     3.4380     2.4140 c3         1 PS8       0.068900
      4 OAD         -4.2330    -2.8610    -0.4520 o          1 PS8      -0.522000
      5 OAE         -4.5960    -0.9140    -2.0480 o          1 PS8      -0.522000
      6 CAH          2.7520    -0.2610     0.7750 ca         1 PS8       0.421900
      7 CAI          2.0950    -0.3070    -0.4800 cp         1 PS8      -0.186000
      8 CAJ         -0.0180    -1.4510     0.3240 ca         1 PS8      -0.143500
      9 CAK         -0.1600    -0.0040    -1.5900 ca         1 PS8      -0.143500
     10 CAL          4.2560     0.1890    -1.4590 ca         1 PS8      -0.240000
     11 CAM          8.3840    -0.0080     1.2270 c6         1 PS8       0.136300
     12 CAN          8.3850     1.4680    -0.7310 c6         1 PS8       0.136300
     13 CAO          6.8300     0.1130     1.3530 c6         1 PS8       0.181300
     14 CAP          6.8310     1.6270    -0.6480 c6         1 PS8       0.181300
     15 NAQ          4.0690    -0.0060     0.9340 nb         1 PS8      -0.764000
     16 NAR         -4.0580     2.9730     0.4610 nc         1 PS8      -0.523800
     17 NAS          9.0110     1.1890     0.5940 n7         1 PS8      -0.841400
     18 NAT         -4.6140    -0.5940     0.4180 nu         1 PS8      -0.851100
     19 CAU         -4.5840     1.8770    -0.0530 cd         1 PS8       0.313300
     20 CAV         -3.4820     1.1180     1.7520 cc         1 PS8      -0.136300
     21 CAW         -1.3920    -1.7220     0.2350 ca         1 PS8       0.213500
     22 CAX         -1.5370    -0.2560    -1.6990 ca         1 PS8       0.213500
     23 CAY          2.8900    -0.0740    -1.6250 ca         1 PS8      -0.008000
     24 CBA          4.8020     0.2210    -0.1670 ca         1 PS8       0.649900
     25 CBB         -4.2390     0.7090     0.6920 cd         1 PS8       0.093000
     26 CBC         -2.1820    -1.1360    -0.7890 ca         1 PS8      -0.280500
     27 NBD          6.1690     0.4780     0.0540 nh         1 PS8      -0.776300
     28 NBE         -3.3720     2.4980     1.5620 na         1 PS8       0.143800
     29 C11          0.6300    -0.5930    -0.5840 cp         1 PS8       0.069000
     30 SBF         -3.9600    -1.4820    -0.8590 sy         1 PS8       1.162600
     31 HAA1        -4.8980     1.9040    -2.1860 hc         1 PS8       0.058033
     32 HAA2        -6.2270     1.1780    -1.2620 hc         1 PS8       0.058033
     33 HAA3        -6.0160     2.9320    -1.2780 hc         1 PS8       0.058033
     34 HAB1        -1.8140     0.1000     2.6660 hc         1 PS8       0.053700
     35 HAB2        -2.8850     0.9140     3.8200 hc         1 PS8       0.053700
     36 HAB3        -3.3970    -0.5980     3.0680 hc         1 PS8       0.053700
     37 HAC1        -3.1310     3.5310     3.3820 h1         1 PS8       0.058367
     38 HAC2        -1.6080     3.0600     2.5690 h1         1 PS8       0.058367
     39 HAC3        -2.5750     4.4230     1.9350 h1         1 PS8       0.058367
     40 HAH          2.1940    -0.4230     1.6960 h4         1 PS8       0.017100
     41 HAY          2.4620    -0.1140    -2.6240 ha         1 PS8       0.120000
     42 HAJ          0.5530    -1.9290     1.1150 ha         1 PS8       0.134000
     43 HAK          0.2980     0.6840    -2.2950 ha         1 PS8       0.134000
     44 HAL          4.8850     0.3480    -2.3270 ha         1 PS8       0.125000
     45 HAM1         8.8160    -0.1720     2.2260 h1         1 PS8       0.064200
     46 HAM2         8.6180    -0.8990     0.6250 h1         1 PS8       0.064200
     47 HAO1         6.4490    -0.8520     1.7210 h1         1 PS8       0.055950
     48 HAO2         6.5930     0.8690     2.1160 h1         1 PS8       0.055950
     49 HAS          8.8390     1.9990     1.2050 hn         1 PS8       0.406000
     50 HAN1         8.6160     0.6430    -1.4220 h1         1 PS8       0.064200
     51 HAN2         8.8190     2.3820    -1.1640 h1         1 PS8       0.064200
     52 HAP1         6.6010     2.5620    -0.1150 h1         1 PS8       0.055950
     53 HAP2         6.4490     1.7440    -1.6710 h1         1 PS8       0.055950
     54 HAT         -4.5000    -1.2330     1.1950 hn         1 PS8       0.499000
     55 Cl1         -2.0350    -2.7860     1.4890 cl         1 PS8      -0.155000
     56 Cl2         -2.3440     0.6080    -3.0070 cl         1 PS8      -0.155000
@<TRIPOS>BOND
     1     1    19 1   
     2     1    31 1   
     3     1    32 1   
     4     1    33 1   
     5     2    20 1   
     6     2    34 1   
     7     2    35 1   
     8     2    36 1   
     9     3    28 1   
    10     3    37 1   
    11     3    38 1   
    12     3    39 1   
    13     4    30 2   
    14     5    30 2   
    15     6     7 ar  
    16     6    15 ar  
    17     6    40 1   
    18     7    23 ar  
    19     7    29 1   
    20     8    21 ar  
    21     8    29 ar  
    22     8    42 1   
    23     9    22 ar  
    24     9    29 ar  
    25     9    43 1   
    26    10    23 ar  
    27    10    24 ar  
    28    10    44 1   
    29    11    13 1   
    30    11    17 1   
    31    11    45 1   
    32    11    46 1   
    33    12    14 1   
    34    12    17 1   
    35    12    50 1   
    36    12    51 1   
    37    13    27 1   
    38    13    47 1   
    39    13    48 1   
    40    14    27 1   
    41    14    52 1   
    42    14    53 1   
    43    15    24 ar  
    44    16    19 2   
    45    16    28 1   
    46    17    49 1   
    47    18    25 1   
    48    18    30 1   
    49    18    54 1   
    50    19    25 1   
    51    20    25 2   
    52    20    28 1   
    53    21    26 ar  
    54    21    55 1   
    55    22    26 ar  
    56    22    56 1   
    57    23    41 1   
    58    24    27 1   
    59    26    30 1   
@<TRIPOS>SUBSTRUCTURE
     1 PS8         1 TEMP              0 ****  ****    0 ROOT
