@<TRIPOS>MOLECULE
PS8
   56    59     1     0     0
SMALL
abcg2


@<TRIPOS>ATOM
      1 CAA         -6.4660     1.2920    -0.8010 c3         1 PS8      -0.124400
      2 CAB         -2.3490     0.8160     2.2060 c3         1 PS8      -0.035800
      3 CAC         -3.2310     3.6830     1.8960 c3         1 PS8       0.068900
      4 OAD         -3.7580    -2.8510    -0.8900 o          1 PS8      -0.522000
      5 OAE         -4.1570    -0.7070    -2.0850 o          1 PS8      -0.522000
      6 CAH          2.9880    -0.4470     0.8500 ca         1 PS8       0.421900
      7 CAI          2.2380    -0.0530    -0.2540 cp         1 PS8      -0.186000
      8 CAJ          0.2280    -1.4210     0.2910 ca         1 PS8      -0.143500
      9 CAK         -0.0290     0.4860    -1.1170 ca         1 PS8      -0.143500
     10 CAL          4.2900     0.8790    -1.1150 ca         1 PS8      -0.240000
     11 CAM          8.3040    -0.4270     1.2270 c6         1 PS8       0.136300
     12 CAN          8.4990     0.7560    -0.8330 c6         1 PS8       0.136300
     13 CAO          6.9340     0.1900     1.4810 c6         1 PS8       0.181300
     14 CAP          7.1320     1.3970    -0.6190 c6         1 PS8       0.181300
     15 NAQ          4.2800    -0.2260     0.9980 nb         1 PS8      -0.764000
     16 NAR         -4.9430     2.7200     0.4940 nc         1 PS8      -0.523800
     17 NAS          9.1730     0.3850     0.3970 n7         1 PS8      -0.841400
     18 NAT         -4.4690    -0.8320     0.4010 nu         1 PS8      -0.851100
     19 CAU         -5.3030     1.5160     0.0980 cd         1 PS8       0.313300
     20 CAV         -3.4990     1.2640     1.3820 cc         1 PS8      -0.136300
     21 CAW         -1.1190    -1.6890     0.1570 ca         1 PS8       0.213500
     22 CAX         -1.3760     0.2050    -1.2660 ca         1 PS8       0.213500
     23 CAY          2.9470     0.6400    -1.2450 ca         1 PS8      -0.008000
     24 CBA          4.9640     0.4100     0.0390 ca         1 PS8       0.649900
     25 CBB         -4.4230     0.5550     0.6320 cd         1 PS8       0.093000
     26 CBC         -1.9520    -0.9250    -0.6710 ca         1 PS8      -0.280500
     27 NBD          6.3000     0.5580     0.2240 nh         1 PS8      -0.776300
     28 NBE         -3.8610     2.5500     1.2630 na         1 PS8       0.143800
     29 C11          0.8070    -0.3370    -0.3660 cp         1 PS8       0.069000
     30 SBF         -3.6640    -1.4060    -0.9210 sy         1 PS8       1.162600
     31 HAA1        -6.1480     1.2080    -1.8410 hc         1 PS8       0.058033
     32 HAA2        -6.9820     0.3670    -0.5460 hc         1 PS8       0.058033
     33 HAA3        -7.1760     2.1140    -0.7300 hc         1 PS8       0.058033
     34 HAB1        -1.3950     1.1050     1.7620 hc         1 PS8       0.053700
     35 HAB2        -2.3870     1.2390     3.2110 hc         1 PS8       0.053700
     36 HAB3        -2.3520    -0.2660     2.3130 hc         1 PS8       0.053700
     37 HAC1        -3.3960     3.6760     2.9730 h1         1 PS8       0.058367
     38 HAC2        -2.1590     3.6820     1.7050 h1         1 PS8       0.058367
     39 HAC3        -3.6590     4.5880     1.4780 h1         1 PS8       0.058367
     40 HAH          2.5090    -0.9510     1.6830 h4         1 PS8       0.017100
     41 HAY          2.4480     0.9820    -2.1430 ha         1 PS8       0.120000
     42 HAJ          0.8280    -2.0750     0.9090 ha         1 PS8       0.134000
     43 HAK          0.3620     1.3810    -1.5800 ha         1 PS8       0.134000
     44 HAL          4.8010     1.4070    -1.9040 ha         1 PS8       0.125000
     45 HAM1         8.7910    -0.6160     2.1850 h1         1 PS8       0.064200
     46 HAM2         8.1700    -1.3980     0.7400 h1         1 PS8       0.064200
     47 HAO1         6.2990    -0.5130     2.0120 h1         1 PS8       0.055950
     48 HAO2         7.0380     1.0810     2.1150 h1         1 PS8       0.055950
     49 HAS          9.4330     1.2250     0.9020 hn         1 PS8       0.406000
     50 HAN1         8.3780    -0.1410    -1.4470 h1         1 PS8       0.064200
     51 HAN2         9.1280     1.4470    -1.3960 h1         1 PS8       0.064200
     52 HAP1         7.2560     2.3830    -0.1510 h1         1 PS8       0.055950
     53 HAP2         6.6710     1.5590    -1.5890 h1         1 PS8       0.055950
     54 HAT         -4.4600    -1.4590     1.1970 hn         1 PS8       0.499000
     55 CL1         -1.7350    -2.9630     1.1490 cl         1 PS8      -0.155000
     56 CL2         -2.2740     1.3820    -2.1490 cl         1 PS8      -0.155000
@<TRIPOS>BOND
     1     1    19 1   
     2     1    31 1   
     3     1    32 1   
     4     1    33 1   
     5     2    20 1   
     6     2    34 1   
     7     2    35 1   
     8     2    36 1   
     9     3    28 1   
    10     3    37 1   
    11     3    38 1   
    12     3    39 1   
    13     4    30 2   
    14     5    30 2   
    15     6     7 ar  
    16     6    15 ar  
    17     6    40 1   
    18     7    23 ar  
    19     7    29 1   
    20     8    21 ar  
    21     8    29 ar  
    22     8    42 1   
    23     9    22 ar  
    24     9    29 ar  
    25     9    43 1   
    26    10    23 ar  
    27    10    24 ar  
    28    10    44 1   
    29    11    13 1   
    30    11    17 1   
    31    11    45 1   
    32    11    46 1   
    33    12    14 1   
    34    12    17 1   
    35    12    50 1   
    36    12    51 1   
    37    13    27 1   
    38    13    47 1   
    39    13    48 1   
    40    14    27 1   
    41    14    52 1   
    42    14    53 1   
    43    15    24 ar  
    44    16    19 2   
    45    16    28 1   
    46    17    49 1   
    47    18    25 1   
    48    18    30 1   
    49    18    54 1   
    50    19    25 1   
    51    20    25 2   
    52    20    28 1   
    53    21    26 ar  
    54    21    55 1   
    55    22    26 ar  
    56    22    56 1   
    57    23    41 1   
    58    24    27 1   
    59    26    30 1   
@<TRIPOS>SUBSTRUCTURE
     1 PS8         1 TEMP              0 ****  ****    0 ROOT
