@<TRIPOS>MOLECULE
PS9
    8     8     1     0     0
SMALL
bcc


@<TRIPOS>ATOM
      1 S2           1.9930    -0.0240     1.0090 ss         1 PS9       0.000000
      2 S3           1.6960    -1.3850    -0.5040 ss         1 PS9       0.000000
      3 S4           0.0040    -2.3920     0.1070 ss         1 PS9       0.000000
      4 S5          -1.6960    -1.4160    -0.5330 ss         1 PS9       0.000000
      5 S6          -2.0490    -0.0670     0.9770 ss         1 PS9       0.000000
      6 S7          -1.7180     1.8050     0.0630 ss         1 PS9       0.000000
      7 S8          -0.0280     1.5600    -1.0520 ss         1 PS9       0.000000
      8 S9           1.6460     1.8360     0.0810 ss         1 PS9       0.000000
@<TRIPOS>BOND
     1     1     2 1   
     2     1     8 1   
     3     2     3 1   
     4     3     4 1   
     5     4     5 1   
     6     5     6 1   
     7     6     7 1   
     8     7     8 1   
@<TRIPOS>SUBSTRUCTURE
     1 PS9         1 TEMP              0 ****  ****    0 ROOT
