@<TRIPOS>MOLECULE
PS9
    8     8     1     0     0
SMALL
No Charge or Current Charge


@<TRIPOS>ATOM
      1 S2           1.8950     0.0140     1.0230 ss         1 PS9       0.000000
      2 S3           1.6920    -1.4620    -0.4490 ss         1 PS9       0.000000
      3 S4           0.0070    -2.6120     0.0260 ss         1 PS9       0.000000
      4 S5          -1.6940    -1.4960    -0.4740 ss         1 PS9       0.000000
      5 S6          -1.9480    -0.0240     0.9940 ss         1 PS9       0.000000
      6 S7          -1.7310     1.8460     0.0740 ss         1 PS9       0.000000
      7 S8          -0.0280     1.7710    -1.1440 ss         1 PS9       0.000000
      8 S9           1.6550     1.8790     0.0990 ss         1 PS9       0.000000
@<TRIPOS>BOND
     1     1     2 1   
     2     1     8 1   
     3     2     3 1   
     4     3     4 1   
     5     4     5 1   
     6     5     6 1   
     7     6     7 1   
     8     7     8 1   
@<TRIPOS>SUBSTRUCTURE
     1 PS9         1 TEMP              0 ****  ****    0 ROOT
