@<TRIPOS>MOLECULE
PSA
   29    29     1     0     0
SMALL
No Charge or Current Charge


@<TRIPOS>ATOM
      1 N           -0.0290     1.0580    -1.3010 n8         1 PSA      -0.908800
      2 CA          -0.2000     0.0660    -0.2070 c3         1 PSA       0.132500
      3 CB           0.8650     0.2750     0.9050 c3         1 PSA      -0.030100
      4 CG           2.2990     0.0370     0.4360 ca         1 PSA      -0.043300
      5 CD1          3.1950     1.1160     0.2940 ca         1 PSA      -0.120500
      6 CD2          2.7470    -1.2710     0.1600 ca         1 PSA      -0.120500
      7 CE1          4.5190     0.8910    -0.1250 ca         1 PSA      -0.135500
      8 CE2          4.0700    -1.4960    -0.2580 ca         1 PSA      -0.135500
      9 CZ           4.9560    -0.4150    -0.4010 ca         1 PSA      -0.146000
     10 CH          -1.6640     0.0610     0.3580 c3         1 PSA       0.121100
     11 OH          -1.9980     1.3520     0.8920 oh         1 PSA      -0.593800
     12 CM          -2.7230    -0.3380    -0.7000 c3         1 PSA      -0.245400
     13 C           -4.0470    -0.7020    -0.0130 c          1 PSA       0.934600
     14 O           -4.1840    -1.8420     0.4110 o          1 PSA      -0.837300
     15 OXT         -4.9110     0.1590     0.0930 o          1 PSA      -0.837300
     16 H           -0.8060     0.9560    -1.9600 hn         1 PSA       0.339300
     17 H2          -0.1450     1.9970    -0.9110 hn         1 PSA       0.339300
     18 HA          -0.0250    -0.9290    -0.6420 h1         1 PSA       0.058700
     19 HB2          0.7610     1.2830     1.3240 hc         1 PSA       0.052200
     20 HB3          0.6470    -0.4130     1.7320 hc         1 PSA       0.052200
     21 HD1          2.8650     2.1310     0.5050 ha         1 PSA       0.127500
     22 HD2          2.0680    -2.1140     0.2730 ha         1 PSA       0.127500
     23 HE1          5.2040     1.7290    -0.2340 ha         1 PSA       0.117500
     24 HE2          4.4080    -2.5090    -0.4700 ha         1 PSA       0.117500
     25 HZ           5.9810    -0.5900    -0.7250 ha         1 PSA       0.115000
     26 HC          -1.6920    -0.6920     1.1610 h1         1 PSA       0.092700
     27 HH          -2.2960     1.9000     0.1380 ho         1 PSA       0.384000
     28 HM1         -2.8530     0.5120    -1.3810 hc         1 PSA       0.021200
     29 HM2         -2.3150    -1.2310    -1.1890 hc         1 PSA       0.021200
@<TRIPOS>BOND
     1     1     2 1   
     2     1    16 1   
     3     1    17 1   
     4     2     3 1   
     5     2    10 1   
     6     2    18 1   
     7     3     4 1   
     8     3    19 1   
     9     3    20 1   
    10     4     5 ar  
    11     4     6 ar  
    12     5     7 ar  
    13     5    21 1   
    14     6     8 ar  
    15     6    22 1   
    16     7     9 ar  
    17     7    23 1   
    18     8     9 ar  
    19     8    24 1   
    20     9    25 1   
    21    10    11 1   
    22    10    12 1   
    23    10    26 1   
    24    11    27 1   
    25    12    13 1   
    26    12    28 1   
    27    12    29 1   
    28    13    14 1   
    29    13    15 1   
@<TRIPOS>SUBSTRUCTURE
     1 PSA         1 TEMP              0 ****  ****    0 ROOT
