@<TRIPOS>MOLECULE
PSA
   29    29     1     0     0
SMALL
bcc


@<TRIPOS>ATOM
      1 N            0.0600     1.0940    -1.1580 n8         1 PSA      -0.908800
      2 CA          -0.1900     0.0300    -0.2000 c3         1 PSA       0.132500
      3 CB           0.8380     0.1160     0.9340 c3         1 PSA      -0.030100
      4 CG           2.2540    -0.0330     0.4580 ca         1 PSA      -0.043300
      5 CD1          3.0420     1.0790     0.1700 ca         1 PSA      -0.120500
      6 CD2          2.8080    -1.2980     0.2720 ca         1 PSA      -0.120500
      7 CE1          4.3450     0.9350    -0.2880 ca         1 PSA      -0.135500
      8 CE2          4.1090    -1.4500    -0.1900 ca         1 PSA      -0.135500
      9 CZ           4.8830    -0.3330    -0.4730 ca         1 PSA      -0.146000
     10 CH          -1.6190    -0.0210     0.3720 c3         1 PSA       0.121100
     11 OH          -1.9250     1.1460     1.1150 oh         1 PSA      -0.593800
     12 CM          -2.6690    -0.2820    -0.6950 c3         1 PSA      -0.245400
     13 C           -4.0820    -0.5090    -0.1220 c          1 PSA       0.934600
     14 O           -4.1700    -1.2730     0.8600 o          1 PSA      -0.837300
     15 OXT         -5.0280     0.0590    -0.7040 o          1 PSA      -0.837300
     16 H           -0.5980     1.0530    -1.9260 hn         1 PSA       0.339300
     17 H2          -0.0530     2.0010    -0.7220 hn         1 PSA       0.339300
     18 HA          -0.0320    -0.9220    -0.7210 h1         1 PSA       0.058700
     19 HB2          0.7190     1.0690     1.4570 hc         1 PSA       0.052200
     20 HB3          0.6150    -0.6680     1.6630 hc         1 PSA       0.052200
     21 HD1          2.6330     2.0720     0.3150 ha         1 PSA       0.127500
     22 HD2          2.2150    -2.1780     0.4950 ha         1 PSA       0.127500
     23 HE1          4.9400     1.8140    -0.5000 ha         1 PSA       0.117500
     24 HE2          4.5190    -2.4430    -0.3260 ha         1 PSA       0.117500
     25 HZ           5.8990    -0.4480    -0.8280 ha         1 PSA       0.115000
     26 HC          -1.6580    -0.8470     1.0890 h1         1 PSA       0.092700
     27 HH          -2.0880     1.8630     0.4930 ho         1 PSA       0.384000
     28 HM1         -2.6900     0.5370    -1.4220 hc         1 PSA       0.021200
     29 HM2         -2.3830    -1.1800    -1.2540 hc         1 PSA       0.021200
@<TRIPOS>BOND
     1     1     2 1   
     2     1    16 1   
     3     1    17 1   
     4     2     3 1   
     5     2    10 1   
     6     2    18 1   
     7     3     4 1   
     8     3    19 1   
     9     3    20 1   
    10     4     5 ar  
    11     4     6 ar  
    12     5     7 ar  
    13     5    21 1   
    14     6     8 ar  
    15     6    22 1   
    16     7     9 ar  
    17     7    23 1   
    18     8     9 ar  
    19     8    24 1   
    20     9    25 1   
    21    10    11 1   
    22    10    12 1   
    23    10    26 1   
    24    11    27 1   
    25    12    13 1   
    26    12    28 1   
    27    12    29 1   
    28    13    14 1   
    29    13    15 1   
@<TRIPOS>SUBSTRUCTURE
     1 PSA         1 TEMP              0 ****  ****    0 ROOT
