@<TRIPOS>MOLECULE
PSB
   57    61     1     0     0
SMALL
No Charge or Current Charge


@<TRIPOS>ATOM
      1 N1          -3.0760    -0.3840     8.2220 nv         1 PSB      -1.066900
      2 C2          -1.9740    -0.2360     7.4540 ca         1 PSB       0.436900
      3 N3          -0.8060    -0.2950     8.1090 nb         1 PSB      -0.358000
      4 C4           0.2860    -0.1470     7.3460 ca         1 PSB       0.462300
      5 O5           1.4900    -0.2010     7.9650 oh         1 PSB      -0.613300
      6 C6           0.1810     0.0560     5.9570 ca         1 PSB      -0.268000
      7 N7           1.1920     0.2260     5.0340 nc         1 PSB      -0.182400
      8 N8           0.4090     0.3710     3.9020 na         1 PSB       0.415000
      9 N9          -0.9710     0.3080     4.0240 nc         1 PSB      -0.256400
     10 C10         -1.0720     0.1020     5.3820 ca         1 PSB       0.013000
     11 N11         -2.1780    -0.0450     6.1360 nb         1 PSB      -0.243000
     12 C12          1.0000     0.5730     2.6520 ca         1 PSB      -0.005200
     13 C13          1.9350     1.6110     2.4670 ca         1 PSB      -0.079000
     14 C14          2.5250     1.8100     1.2090 ca         1 PSB      -0.114000
     15 C15          2.1900     0.9800     0.1270 ca         1 PSB      -0.080000
     16 C16          1.2540    -0.0710     0.2910 ca         1 PSB      -0.145600
     17 C17          0.6660    -0.2600     1.5640 ca         1 PSB      -0.041000
     18 C18          0.8580    -0.9870    -0.8480 c          1 PSB       0.619700
     19 O19          0.0240    -1.8710    -0.7120 o          1 PSB      -0.587100
     20 N20          1.4720    -0.7700    -2.0590 ns         1 PSB      -0.495900
     21 C21          1.1620    -1.5060    -3.2830 c3         1 PSB       0.143300
     22 C22          1.7910    -0.8520    -4.5110 ca         1 PSB      -0.072300
     23 C23          2.8260    -1.5310    -5.1860 ca         1 PSB      -0.114000
     24 C24          3.4390    -0.9630    -6.3160 ca         1 PSB      -0.089000
     25 C25          3.0240     0.2940    -6.7800 ca         1 PSB      -0.116000
     26 C26          1.9970     0.9810    -6.1160 ca         1 PSB      -0.067000
     27 C27          1.3730     0.4170    -4.9870 ca         1 PSB      -0.119000
     28 S28          0.0700     1.3610    -4.1870 ss         1 PSB       0.019000
     29 C29         -1.3540     0.3160    -4.5220 ca         1 PSB      -0.095000
     30 C30         -1.5080    -0.2510    -5.8030 ca         1 PSB      -0.116000
     31 C31         -2.6080    -1.0760    -6.0880 ca         1 PSB      -0.104000
     32 C32         -3.5640    -1.3360    -5.0960 ca         1 PSB      -0.113000
     33 C33         -3.4210    -0.7700    -3.8180 ca         1 PSB      -0.074000
     34 C34         -2.3200     0.0590    -3.5170 ca         1 PSB      -0.056300
     35 C35         -2.2070     0.6470    -2.1090 c3         1 PSB       0.200900
     36 O36         -2.8940     1.9030    -2.0320 oh         1 PSB      -0.659000
     37 HN11        -2.9690    -0.2830     9.2290 hn         1 PSB       0.506500
     38 HN12        -3.9740    -0.1060     7.8330 hn         1 PSB       0.506500
     39 HO5          1.2900    -0.3510     8.9130 ho         1 PSB       0.494000
     40 H13          2.2020     2.2640     3.2950 ha         1 PSB       0.146000
     41 H14          3.2450     2.6150     1.0710 ha         1 PSB       0.125000
     42 H15          2.6670     1.1700    -0.8310 ha         1 PSB       0.123000
     43 H17         -0.0560    -1.0620     1.7120 ha         1 PSB       0.171000
     44 H20          2.1530    -0.0260    -2.1090 hn         1 PSB       0.315500
     45 H211         0.0740    -1.5670    -3.4070 h1         1 PSB       0.071200
     46 H212         1.5330    -2.5330    -3.1730 h1         1 PSB       0.071200
     47 H23          3.1620    -2.5040    -4.8350 ha         1 PSB       0.117000
     48 H24          4.2360    -1.4970    -6.8280 ha         1 PSB       0.118000
     49 H25          3.4990     0.7360    -7.6540 ha         1 PSB       0.120000
     50 H26          1.6800     1.9570    -6.4800 ha         1 PSB       0.131000
     51 H30         -0.7770    -0.0520    -6.5820 ha         1 PSB       0.117000
     52 H31         -2.7190    -1.5110    -7.0790 ha         1 PSB       0.111000
     53 H32         -4.4170    -1.9740    -5.3160 ha         1 PSB       0.114000
     54 H33         -4.1710    -0.9740    -3.0570 ha         1 PSB       0.134000
     55 H351        -1.1520     0.7680    -1.8320 h1         1 PSB       0.040700
     56 H352        -2.6390    -0.0650    -1.3920 h1         1 PSB       0.040700
     57 H36         -2.7980     2.2240    -1.1080 ho         1 PSB       0.448000
@<TRIPOS>BOND
     1     1     2 1   
     2     1    37 1   
     3     1    38 1   
     4     2     3 ar  
     5     2    11 ar  
     6     3     4 ar  
     7     4     5 1   
     8     4     6 ar  
     9     5    39 1   
    10     6     7 2   
    11     6    10 ar  
    12     7     8 1   
    13     8     9 1   
    14     8    12 1   
    15     9    10 2   
    16    10    11 ar  
    17    12    13 ar  
    18    12    17 ar  
    19    13    14 ar  
    20    13    40 1   
    21    14    15 ar  
    22    14    41 1   
    23    15    16 ar  
    24    15    42 1   
    25    16    17 ar  
    26    16    18 1   
    27    17    43 1   
    28    18    19 2   
    29    18    20 1   
    30    20    21 1   
    31    20    44 1   
    32    21    22 1   
    33    21    45 1   
    34    21    46 1   
    35    22    23 ar  
    36    22    27 ar  
    37    23    24 ar  
    38    23    47 1   
    39    24    25 ar  
    40    24    48 1   
    41    25    26 ar  
    42    25    49 1   
    43    26    27 ar  
    44    26    50 1   
    45    27    28 1   
    46    28    29 1   
    47    29    30 ar  
    48    29    34 ar  
    49    30    31 ar  
    50    30    51 1   
    51    31    32 ar  
    52    31    52 1   
    53    32    33 ar  
    54    32    53 1   
    55    33    34 ar  
    56    33    54 1   
    57    34    35 1   
    58    35    36 1   
    59    35    55 1   
    60    35    56 1   
    61    36    57 1   
@<TRIPOS>SUBSTRUCTURE
     1 PSB         1 TEMP              0 ****  ****    0 ROOT
