@<TRIPOS>MOLECULE
PSB
   57    61     1     0     0
SMALL
bcc


@<TRIPOS>ATOM
      1 N1          -2.5420    -1.3730     8.0970 nv         1 PSB      -0.956500
      2 C2          -1.6550    -0.7880     7.2830 ca         1 PSB       0.962900
      3 N3          -0.7810     0.0570     7.9160 nb         1 PSB      -0.884000
      4 C4           0.1300     0.6670     7.2260 ca         1 PSB       0.790600
      5 O5           0.9850     1.4880     7.7910 oh         1 PSB      -0.574300
      6 C6           0.2010     0.4420     5.8290 ca         1 PSB      -0.398600
      7 N7           0.9830     0.8900     4.8550 nc         1 PSB      -0.182400
      8 N8           0.5110     0.2880     3.8010 na         1 PSB       0.415000
      9 N9          -0.5190    -0.5240     3.9820 nc         1 PSB      -0.256400
     10 C10         -0.7450    -0.4460     5.2890 ca         1 PSB       0.341300
     11 N11         -1.6910    -1.0780     5.9960 nb         1 PSB      -0.769000
     12 C12          1.0750     0.4890     2.5200 ca         1 PSB      -0.005200
     13 C13          2.0700     1.4460     2.3500 ca         1 PSB      -0.097000
     14 C14          2.6130     1.6310     1.0910 ca         1 PSB      -0.132000
     15 C15          2.1830     0.8680     0.0150 ca         1 PSB      -0.098000
     16 C16          1.1900    -0.0890     0.1970 ca         1 PSB      -0.145600
     17 C17          0.6210    -0.2680     1.4520 ca         1 PSB      -0.059000
     18 C18          0.6590    -0.9150    -0.9320 c          1 PSB       0.686700
     19 O19         -0.5060    -1.2860    -0.9460 o          1 PSB      -0.587100
     20 N20          1.5450    -1.2080    -1.8960 ns         1 PSB      -0.562900
     21 C21          1.1930    -1.8370    -3.1490 c3         1 PSB       0.143300
     22 C22          1.8210    -1.1050    -4.3050 ca         1 PSB      -0.072300
     23 C23          2.8350    -1.7150    -5.0340 ca         1 PSB      -0.132000
     24 C24          3.4620    -1.0600    -6.0860 ca         1 PSB      -0.107000
     25 C25          3.0790     0.2280    -6.4260 ca         1 PSB      -0.134000
     26 C26          2.0580     0.8490    -5.7180 ca         1 PSB      -0.085000
     27 C27          1.4300     0.1900    -4.6680 ca         1 PSB       0.007900
     28 S28          0.1670     1.0570    -3.7770 ss         1 PSB      -0.234800
     29 C29         -1.3280     0.2870    -4.3460 ca         1 PSB       0.031900
     30 C30         -1.3650    -0.5190    -5.4780 ca         1 PSB      -0.134000
     31 C31         -2.5600    -1.0890    -5.8910 ca         1 PSB      -0.122000
     32 C32         -3.7250    -0.8420    -5.1830 ca         1 PSB      -0.131000
     33 C33         -3.6890    -0.0270    -4.0590 ca         1 PSB      -0.092000
     34 C34         -2.5000     0.5450    -3.6200 ca         1 PSB      -0.056300
     35 C35         -2.4510     1.4130    -2.3920 c3         1 PSB       0.177700
     36 O36         -3.7390     1.5720    -1.8580 oh         1 PSB      -0.596800
     37 HN11        -2.6000    -1.0980     9.0610 hn         1 PSB       0.451300
     38 HN12        -3.2820    -1.9340     7.7150 hn         1 PSB       0.451300
     39 HO5          0.8080     1.5420     8.7420 ho         1 PSB       0.455000
     40 H13          2.4110     2.0430     3.1830 ha         1 PSB       0.164000
     41 H14          3.3760     2.3840     0.9500 ha         1 PSB       0.143000
     42 H15          2.6100     1.0480    -0.9640 ha         1 PSB       0.141000
     43 H17         -0.1630    -0.9990     1.5910 ha         1 PSB       0.189000
     44 H20          2.5160    -0.9840    -1.7540 hn         1 PSB       0.315500
     45 H211         0.1060    -1.8500    -3.2320 h1         1 PSB       0.071200
     46 H212         1.5230    -2.8790    -3.1580 h1         1 PSB       0.071200
     47 H23          3.1430    -2.7190    -4.7690 ha         1 PSB       0.135000
     48 H24          4.2510    -1.5570    -6.6350 ha         1 PSB       0.136000
     49 H25          3.5630     0.7490    -7.2400 ha         1 PSB       0.138000
     50 H26          1.7420     1.8490    -5.9850 ha         1 PSB       0.149000
     51 H30         -0.4610    -0.7080    -6.0430 ha         1 PSB       0.135000
     52 H31         -2.5740    -1.7200    -6.7710 ha         1 PSB       0.129000
     53 H32         -4.6620    -1.2810    -5.4990 ha         1 PSB       0.132000
     54 H33         -4.6030     0.1590    -3.5130 ha         1 PSB       0.152000
     55 H351        -2.0070     2.3850    -2.6550 h1         1 PSB       0.040700
     56 H352        -1.7690     0.9460    -1.6680 h1         1 PSB       0.040700
     57 H36         -3.6610     2.0760    -1.0430 ho         1 PSB       0.409000
@<TRIPOS>BOND
     1     1     2 1   
     2     1    37 1   
     3     1    38 1   
     4     2     3 ar  
     5     2    11 ar  
     6     3     4 ar  
     7     4     5 1   
     8     4     6 ar  
     9     5    39 1   
    10     6     7 2   
    11     6    10 ar  
    12     7     8 1   
    13     8     9 1   
    14     8    12 1   
    15     9    10 2   
    16    10    11 ar  
    17    12    13 ar  
    18    12    17 ar  
    19    13    14 ar  
    20    13    40 1   
    21    14    15 ar  
    22    14    41 1   
    23    15    16 ar  
    24    15    42 1   
    25    16    17 ar  
    26    16    18 1   
    27    17    43 1   
    28    18    19 2   
    29    18    20 1   
    30    20    21 1   
    31    20    44 1   
    32    21    22 1   
    33    21    45 1   
    34    21    46 1   
    35    22    23 ar  
    36    22    27 ar  
    37    23    24 ar  
    38    23    47 1   
    39    24    25 ar  
    40    24    48 1   
    41    25    26 ar  
    42    25    49 1   
    43    26    27 ar  
    44    26    50 1   
    45    27    28 1   
    46    28    29 1   
    47    29    30 ar  
    48    29    34 ar  
    49    30    31 ar  
    50    30    51 1   
    51    31    32 ar  
    52    31    52 1   
    53    32    33 ar  
    54    32    53 1   
    55    33    34 ar  
    56    33    54 1   
    57    34    35 1   
    58    35    36 1   
    59    35    55 1   
    60    35    56 1   
    61    36    57 1   
@<TRIPOS>SUBSTRUCTURE
     1 PSB         1 TEMP              0 ****  ****    0 ROOT
