@<TRIPOS>MOLECULE
PSC
  132   131     1     0     0
SMALL
abcg2


@<TRIPOS>ATOM
      1 P           -0.9970     5.8490    -0.5730 p5         1 PSC       1.378800
      2 N           -4.1830     4.1550    -2.6470 n4         1 PSC      -0.486000
      3 C01         -0.8800     4.2760     3.7510 c3         1 PSC       0.172600
      4 C02          0.3060     4.8430     3.0050 c3         1 PSC       0.175300
      5 C03         -0.0470     5.7810     1.8600 c3         1 PSC       0.201600
      6 C04         -1.6390     4.5830    -2.7670 c3         1 PSC       0.212600
      7 C05         -2.8260     3.7330    -3.1550 c3         1 PSC       0.085600
      8 C06         -4.4420     5.5960    -2.9190 c3         1 PSC       0.073233
      9 C07         -5.1940     3.3360    -3.3750 c3         1 PSC       0.073233
     10 C08         -4.3360     3.8980    -1.1850 c3         1 PSC       0.073233
     11 O01          1.0790     3.7330     2.5430 os         1 PSC      -0.430100
     12 O04         -3.1990     3.1330     4.4440 o          1 PSC      -0.502000
     13 O11         -0.5630     5.0450     0.7780 os         1 PSC      -0.575400
     14 O12         -1.3210     4.4620    -1.4010 os         1 PSC      -0.572400
     15 O13          0.1770     6.5510    -1.1810 o          1 PSC      -0.816500
     16 O14         -2.2760     6.6050    -0.3540 o          1 PSC      -0.816500
     17 C1           2.3750     3.8990     2.2860 c          1 PSC       0.601100
     18 C2           2.9960     2.6220     1.7910 c3         1 PSC      -0.135400
     19 C3           4.4540     2.7620     1.3880 c3         1 PSC      -0.068400
     20 C4           5.0300     1.4440     0.8860 c3         1 PSC      -0.075400
     21 C5           6.4900     1.5560     0.4670 c3         1 PSC      -0.075400
     22 C6           7.0700     0.2430    -0.0430 c3         1 PSC      -0.075400
     23 C7           8.5320     0.3560    -0.4540 c3         1 PSC      -0.072400
     24 C8           9.1080    -0.9610    -0.9770 c3         1 PSC      -0.044200
     25 C9          10.5250    -0.8100    -1.4330 c2         1 PSC      -0.215200
     26 C10         11.6120    -1.3810    -0.9170 c2         1 PSC      -0.213200
     27 C11         11.6720    -2.3560     0.2240 c3         1 PSC      -0.009000
     28 C12         12.1600    -3.6990    -0.2370 c2         1 PSC      -0.215200
     29 C13         13.2810    -4.2840     0.1730 c2         1 PSC      -0.220200
     30 C14         13.7850    -5.6120    -0.2950 c3         1 PSC      -0.040200
     31 C15         15.2000    -5.5340    -0.8670 c3         1 PSC      -0.072400
     32 C16         15.7320    -6.8870    -1.3220 c3         1 PSC      -0.076400
     33 C17         17.1580    -6.8240    -1.8550 c3         1 PSC      -0.075400
     34 C18         17.6740    -8.1780    -2.3220 c3         1 PSC      -0.088100
     35 C19         -2.8290     3.0250     3.3010 c          1 PSC       0.593100
     36 C20         -3.6070     2.3650     2.1950 c3         1 PSC      -0.137400
     37 C21         -4.6760     1.4000     2.6800 c3         1 PSC      -0.072400
     38 C22         -5.4250     0.7600     1.5180 c3         1 PSC      -0.071400
     39 C23         -6.4790    -0.2390     1.9770 c3         1 PSC      -0.077400
     40 C24         -7.2160    -0.9130     0.8280 c3         1 PSC      -0.072400
     41 C25         -8.2570    -1.9220     1.3010 c3         1 PSC      -0.076400
     42 C26         -8.9890    -2.6200     0.1630 c3         1 PSC      -0.073400
     43 C27        -10.0200    -3.6310     0.6490 c3         1 PSC      -0.075400
     44 C28        -10.7520    -4.3430    -0.4800 c3         1 PSC      -0.073400
     45 C29        -11.7780    -5.3550     0.0170 c3         1 PSC      -0.074400
     46 C30        -12.5110    -6.0770    -1.1050 c3         1 PSC      -0.073400
     47 C31        -13.5330    -7.0880    -0.6000 c3         1 PSC      -0.075400
     48 C32        -14.2690    -7.8160    -1.7160 c3         1 PSC      -0.075400
     49 C33        -15.2880    -8.8270    -1.2050 c3         1 PSC      -0.075400
     50 C34        -16.0190    -9.5530    -2.3260 c3         1 PSC      -0.088100
     51 H011        -1.4540     5.1060     4.1700 h1         1 PSC       0.052700
     52 H012        -0.5350     3.6560     4.5830 h1         1 PSC       0.052700
     53 H02          0.8720     5.4270     3.7380 h1         1 PSC       0.062700
     54 H031        -0.7680     6.5140     2.2420 h1         1 PSC       0.043700
     55 H032         0.8470     6.3380     1.5620 h1         1 PSC       0.043700
     56 H041        -1.7910     5.6190    -3.0830 h1         1 PSC       0.056200
     57 H042        -0.8100     4.2070    -3.3750 h1         1 PSC       0.056200
     58 H051        -2.8930     3.7430    -4.2430 hx         1 PSC       0.079700
     59 H052        -2.6850     2.7000    -2.8370 hx         1 PSC       0.079700
     60 H061        -4.2760     5.7990    -3.9740 hx         1 PSC       0.095478
     61 H062        -5.4770     5.8130    -2.6660 hx         1 PSC       0.095478
     62 H063        -3.7870     6.2070    -2.3050 hx         1 PSC       0.095478
     63 H071        -5.0080     2.2830    -3.1840 hx         1 PSC       0.095478
     64 H072        -6.1880     3.6020    -3.0260 hx         1 PSC       0.095478
     65 H073        -5.1150     3.5330    -4.4410 hx         1 PSC       0.095478
     66 H081        -3.7000     4.5730    -0.6240 hx         1 PSC       0.095478
     67 H082        -5.3750     4.0700    -0.9160 hx         1 PSC       0.095478
     68 H083        -4.0690     2.8650    -0.9790 hx         1 PSC       0.095478
     69 H21          2.8850     1.8690     2.5780 hc         1 PSC       0.069200
     70 H22          2.3990     2.2550     0.9500 hc         1 PSC       0.069200
     71 H31          4.5520     3.5200     0.6070 hc         1 PSC       0.056200
     72 H32          5.0440     3.1150     2.2390 hc         1 PSC       0.056200
     73 H41          4.9340     0.6830     1.6690 hc         1 PSC       0.035200
     74 H42          4.4360     1.0860     0.0380 hc         1 PSC       0.035200
     75 H51          6.5870     2.3200    -0.3120 hc         1 PSC       0.040700
     76 H52          7.0860     1.9110     1.3160 hc         1 PSC       0.040700
     77 H61          6.9690    -0.5230     0.7340 hc         1 PSC       0.035700
     78 H62          6.4780    -0.1090    -0.8950 hc         1 PSC       0.035700
     79 H71          8.6360     1.1270    -1.2250 hc         1 PSC       0.040700
     80 H72          9.1280     0.6950     0.3990 hc         1 PSC       0.040700
     81 H81          9.0190    -1.7300    -0.2060 hc         1 PSC       0.043200
     82 H82          8.4960    -1.3000    -1.8210 hc         1 PSC       0.043200
     83 H9          10.6660    -0.1300    -2.2710 ha         1 PSC       0.166000
     84 H10         12.5730    -1.1490    -1.3690 ha         1 PSC       0.168000
     85 H111        12.3450    -1.9710     0.9970 hc         1 PSC       0.049700
     86 H112        10.6900    -2.4600     0.6910 hc         1 PSC       0.049700
     87 H12         11.5360    -4.2030    -0.9730 ha         1 PSC       0.168000
     88 H1          13.9040    -3.7700     0.9040 ha         1 PSC       0.165000
     89 H141        13.7870    -6.3150     0.5460 hc         1 PSC       0.042700
     90 H142        13.1040    -6.0290    -1.0440 hc         1 PSC       0.042700
     91 H151        15.2150    -4.8330    -1.7070 hc         1 PSC       0.039700
     92 H152        15.8720    -5.1150    -0.1090 hc         1 PSC       0.039700
     93 H161        15.6890    -7.5940    -0.4860 hc         1 PSC       0.036700
     94 H162        15.0720    -7.2950    -2.0970 hc         1 PSC       0.036700
     95 H171        17.2050    -6.1100    -2.6830 hc         1 PSC       0.037200
     96 H172        17.8160    -6.4270    -1.0750 hc         1 PSC       0.037200
     97 H181        17.6590    -8.9070    -1.5100 hc         1 PSC       0.031367
     98 H182        17.0580    -8.5750    -3.1310 hc         1 PSC       0.031367
     99 H183        18.6990    -8.1130    -2.6880 hc         1 PSC       0.031367
    100 H201        -2.9140     1.8680     1.5130 hc         1 PSC       0.064700
    101 H202        -4.0700     3.1710     1.6140 hc         1 PSC       0.064700
    102 H211        -5.3840     1.9210     3.3290 hc         1 PSC       0.058200
    103 H212        -4.2150     0.6170     3.2880 hc         1 PSC       0.058200
    104 H221        -4.7100     0.2580     0.8570 hc         1 PSC       0.025700
    105 H222        -5.9010     1.5400     0.9140 hc         1 PSC       0.025700
    106 H231        -7.2020     0.2690     2.6250 hc         1 PSC       0.044700
    107 H232        -6.0010    -1.0040     2.5980 hc         1 PSC       0.044700
    108 H241        -6.4920    -1.4170     0.1780 hc         1 PSC       0.031200
    109 H242        -7.7020    -0.1530     0.2080 hc         1 PSC       0.031200
    110 H251        -8.9850    -1.4160     1.9450 hc         1 PSC       0.041200
    111 H252        -7.7680    -2.6730     1.9310 hc         1 PSC       0.041200
    112 H261        -8.2610    -3.1250    -0.4810 hc         1 PSC       0.034700
    113 H262        -9.4830    -1.8710    -0.4670 hc         1 PSC       0.034700
    114 H271       -10.7490    -3.1240     1.2910 hc         1 PSC       0.039200
    115 H272        -9.5250    -4.3740     1.2840 hc         1 PSC       0.039200
    116 H281       -10.0240    -4.8510    -1.1220 hc         1 PSC       0.036200
    117 H282       -11.2510    -3.6030    -1.1150 hc         1 PSC       0.036200
    118 H291       -12.5060    -4.8460     0.6580 hc         1 PSC       0.038200
    119 H292       -11.2770    -6.0920     0.6550 hc         1 PSC       0.038200
    120 H301       -11.7840    -6.5860    -1.7470 hc         1 PSC       0.036200
    121 H302       -13.0140    -5.3410    -1.7430 hc         1 PSC       0.036200
    122 H311       -14.2610    -6.5780     0.0410 hc         1 PSC       0.037700
    123 H312       -13.0290    -7.8210     0.0400 hc         1 PSC       0.037700
    124 H321       -13.5420    -8.3280    -2.3570 hc         1 PSC       0.036700
    125 H322       -14.7740    -7.0850    -2.3570 hc         1 PSC       0.036700
    126 H331       -16.0140    -8.3150    -0.5660 hc         1 PSC       0.036700
    127 H332       -14.7830    -9.5560    -0.5640 hc         1 PSC       0.036700
    128 H341       -15.3210   -10.1010    -2.9610 hc         1 PSC       0.031700
    129 H342       -16.7420   -10.2700    -1.9340 hc         1 PSC       0.031700
    130 H343       -16.5610    -8.8510    -2.9630 hc         1 PSC       0.031700
    131 O03         -1.6790     3.5110     2.8560 os         1 PSC      -0.402100
    132 O02          2.9570     4.9430     2.4420 o          1 PSC      -0.492000
@<TRIPOS>BOND
     1     1    13 1   
     2     1    14 1   
     3     1    15 1   
     4     1    16 1   
     5     2     7 1   
     6     2     8 1   
     7     2     9 1   
     8     2    10 1   
     9     3     4 1   
    10     3    51 1   
    11     3    52 1   
    12     3   131 1   
    13     4     5 1   
    14     4    11 1   
    15     4    53 1   
    16     5    13 1   
    17     5    54 1   
    18     5    55 1   
    19     6     7 1   
    20     6    14 1   
    21     6    56 1   
    22     6    57 1   
    23     7    58 1   
    24     7    59 1   
    25     8    60 1   
    26     8    61 1   
    27     8    62 1   
    28     9    63 1   
    29     9    64 1   
    30     9    65 1   
    31    10    66 1   
    32    10    67 1   
    33    10    68 1   
    34    11    17 1   
    35    12    35 2   
    36    17    18 1   
    37    17   132 2   
    38    18    19 1   
    39    18    69 1   
    40    18    70 1   
    41    19    20 1   
    42    19    71 1   
    43    19    72 1   
    44    20    21 1   
    45    20    73 1   
    46    20    74 1   
    47    21    22 1   
    48    21    75 1   
    49    21    76 1   
    50    22    23 1   
    51    22    77 1   
    52    22    78 1   
    53    23    24 1   
    54    23    79 1   
    55    23    80 1   
    56    24    25 1   
    57    24    81 1   
    58    24    82 1   
    59    25    26 2   
    60    25    83 1   
    61    26    27 1   
    62    26    84 1   
    63    27    28 1   
    64    27    85 1   
    65    27    86 1   
    66    28    29 2   
    67    28    87 1   
    68    29    30 1   
    69    29    88 1   
    70    30    31 1   
    71    30    89 1   
    72    30    90 1   
    73    31    32 1   
    74    31    91 1   
    75    31    92 1   
    76    32    33 1   
    77    32    93 1   
    78    32    94 1   
    79    33    34 1   
    80    33    95 1   
    81    33    96 1   
    82    34    97 1   
    83    34    98 1   
    84    34    99 1   
    85    35    36 1   
    86    35   131 1   
    87    36    37 1   
    88    36   100 1   
    89    36   101 1   
    90    37    38 1   
    91    37   102 1   
    92    37   103 1   
    93    38    39 1   
    94    38   104 1   
    95    38   105 1   
    96    39    40 1   
    97    39   106 1   
    98    39   107 1   
    99    40    41 1   
   100    40   108 1   
   101    40   109 1   
   102    41    42 1   
   103    41   110 1   
   104    41   111 1   
   105    42    43 1   
   106    42   112 1   
   107    42   113 1   
   108    43    44 1   
   109    43   114 1   
   110    43   115 1   
   111    44    45 1   
   112    44   116 1   
   113    44   117 1   
   114    45    46 1   
   115    45   118 1   
   116    45   119 1   
   117    46    47 1   
   118    46   120 1   
   119    46   121 1   
   120    47    48 1   
   121    47   122 1   
   122    47   123 1   
   123    48    49 1   
   124    48   124 1   
   125    48   125 1   
   126    49    50 1   
   127    49   126 1   
   128    49   127 1   
   129    50   128 1   
   130    50   129 1   
   131    50   130 1   
@<TRIPOS>SUBSTRUCTURE
     1 PSC         1 TEMP              0 ****  ****    0 ROOT
