@<TRIPOS>MOLECULE
PSC
  132   131     1     0     0
SMALL
No Charge or Current Charge


@<TRIPOS>ATOM
      1 P            0.1630     5.2720     0.1250 p5         1 PSC       1.378800
      2 N           -1.7060     1.8380    -1.1830 n4         1 PSC      -0.486000
      3 C01         -1.2830     6.1430     4.0030 c3         1 PSC       0.172600
      4 C02          0.2290     5.9100     3.7430 c3         1 PSC       0.175300
      5 C03          0.7990     6.5340     2.4210 c3         1 PSC       0.201600
      6 C04         -0.5140     2.8660     0.9920 c3         1 PSC       0.212600
      7 C05         -1.5680     1.9270     0.3530 c3         1 PSC       0.085600
      8 C06         -0.3590     1.4650    -1.8200 c3         1 PSC       0.073233
      9 C07         -2.7300     0.7470    -1.5180 c3         1 PSC       0.073233
     10 C08         -2.1970     3.1690    -1.7720 c3         1 PSC       0.073233
     11 O01          0.5320     4.4940     3.8240 os         1 PSC      -0.430100
     12 O04         -4.0290     6.2580     3.9390 o          1 PSC      -0.502000
     13 O11          1.1040     5.5430     1.4090 os         1 PSC      -0.575400
     14 O12         -0.8860     4.2280     0.7550 os         1 PSC      -0.572400
     15 O13          0.9360     4.6490    -0.9870 o          1 PSC      -0.816500
     16 O14         -0.5130     6.5230    -0.3280 o          1 PSC      -0.816500
     17 C1           1.8260     4.1220     4.0840 c          1 PSC       0.601100
     18 C2           2.0340     2.6170     3.9000 c3         1 PSC      -0.135400
     19 C3           2.8140     2.3350     2.5940 c3         1 PSC      -0.068400
     20 C4           2.8430     0.8440     2.1990 c3         1 PSC      -0.075400
     21 C5           3.6380     0.5950     0.8990 c3         1 PSC      -0.075400
     22 C6           3.7190    -0.8960     0.5070 c3         1 PSC      -0.075400
     23 C7           4.5620    -1.1320    -0.7660 c3         1 PSC      -0.072400
     24 C8           4.6890    -2.6210    -1.1490 c3         1 PSC      -0.044200
     25 C9           5.5760    -2.8240    -2.3640 c2         1 PSC      -0.215200
     26 C10          6.9200    -2.8880    -2.3830 c2         1 PSC      -0.213200
     27 C11          7.8640    -2.7520    -1.2020 c3         1 PSC      -0.009000
     28 C12          8.8850    -3.8690    -1.1950 c2         1 PSC      -0.215200
     29 C13         10.2000    -3.7140    -0.9730 c2         1 PSC      -0.220200
     30 C14         11.2220    -4.8320    -0.9590 c3         1 PSC      -0.040200
     31 C15         12.3440    -4.6120    -1.9960 c3         1 PSC      -0.072400
     32 C16         13.3870    -5.7510    -2.0140 c3         1 PSC      -0.076400
     33 C17         14.5190    -5.5180    -3.0390 c3         1 PSC      -0.075400
     34 C18         15.5540    -6.6590    -3.0660 c3         1 PSC      -0.088100
     35 C19         -3.4340     5.7130     3.0180 c          1 PSC       0.593100
     36 C20         -4.1380     5.0450     1.8340 c3         1 PSC      -0.137400
     37 C21         -4.4710     3.5690     2.1560 c3         1 PSC      -0.072400
     38 C22         -5.2060     2.8480     1.0060 c3         1 PSC      -0.071400
     39 C23         -5.4370     1.3490     1.2900 c3         1 PSC      -0.077400
     40 C24         -6.2810     0.6480     0.2030 c3         1 PSC      -0.072400
     41 C25         -6.4840    -0.8560     0.4840 c3         1 PSC      -0.076400
     42 C26         -7.3980    -1.5470    -0.5510 c3         1 PSC      -0.073400
     43 C27         -7.6190    -3.0450    -0.2520 c3         1 PSC      -0.075400
     44 C28         -8.5830    -3.7250    -1.2480 c3         1 PSC      -0.073400
     45 C29         -8.8100    -5.2210    -0.9390 c3         1 PSC      -0.074400
     46 C30         -9.8100    -5.8930    -1.9050 c3         1 PSC      -0.073400
     47 C31        -10.0470    -7.3850    -1.5820 c3         1 PSC      -0.075400
     48 C32        -11.0700    -8.0530    -2.5270 c3         1 PSC      -0.075400
     49 C33        -11.3210    -9.5390    -2.1880 c3         1 PSC      -0.075400
     50 C34        -12.3510   -10.2050    -3.1210 c3         1 PSC      -0.088100
     51 H011        -1.4620     7.2220     4.1020 h1         1 PSC       0.052700
     52 H012        -1.5530     5.6690     4.9560 h1         1 PSC       0.052700
     53 H02          0.7260     6.4330     4.5720 h1         1 PSC       0.062700
     54 H031         0.0930     7.2860     2.0460 h1         1 PSC       0.043700
     55 H032         1.7190     7.0770     2.6760 h1         1 PSC       0.043700
     56 H041         0.4750     2.6280     0.5840 h1         1 PSC       0.056200
     57 H042        -0.4870     2.6730     2.0720 h1         1 PSC       0.056200
     58 H051        -1.3500     0.9150     0.7030 hx         1 PSC       0.079700
     59 H052        -2.5470     2.2050     0.7460 hx         1 PSC       0.079700
     60 H061        -0.0100     0.5170    -1.4020 hx         1 PSC       0.095478
     61 H062        -0.4870     1.3650    -2.9010 hx         1 PSC       0.095478
     62 H063         0.3680     2.2520    -1.6110 hx         1 PSC       0.095478
     63 H071        -3.6900     1.0100    -1.0690 hx         1 PSC       0.095478
     64 H072        -2.8390     0.6740    -2.6030 hx         1 PSC       0.095478
     65 H073        -2.3850    -0.2090    -1.1180 hx         1 PSC       0.095478
     66 H081        -1.4390     3.9360    -1.6120 hx         1 PSC       0.095478
     67 H082        -2.3670     3.0480    -2.8450 hx         1 PSC       0.095478
     68 H083        -3.1260     3.4630    -1.2820 hx         1 PSC       0.095478
     69 H21          2.6080     2.2250     4.7480 hc         1 PSC       0.069200
     70 H22          1.0590     2.1190     3.8450 hc         1 PSC       0.069200
     71 H31          2.3710     2.9140     1.7750 hc         1 PSC       0.056200
     72 H32          3.8420     2.7010     2.7090 hc         1 PSC       0.056200
     73 H41          3.2920     0.2630     3.0150 hc         1 PSC       0.035200
     74 H42          1.8160     0.4800     2.0700 hc         1 PSC       0.035200
     75 H51          3.1750     1.1590     0.0790 hc         1 PSC       0.040700
     76 H52          4.6550     0.9880     1.0210 hc         1 PSC       0.040700
     77 H61          4.1570    -1.4620     1.3380 hc         1 PSC       0.035700
     78 H62          2.7060    -1.2860     0.3500 hc         1 PSC       0.035700
     79 H71          4.1160    -0.5830    -1.6040 hc         1 PSC       0.040700
     80 H72          5.5660    -0.7170    -0.6110 hc         1 PSC       0.040700
     81 H81          5.0810    -3.1810    -0.2910 hc         1 PSC       0.043200
     82 H82          3.6900    -3.0320    -1.3440 hc         1 PSC       0.043200
     83 H9           5.0200    -2.9290    -3.2990 ha         1 PSC       0.166000
     84 H10          7.4350    -3.0370    -3.3350 ha         1 PSC       0.168000
     85 H111         8.3690    -1.7790    -1.2480 hc         1 PSC       0.049700
     86 H112         7.3160    -2.7590    -0.2530 hc         1 PSC       0.049700
     87 H12          8.4680    -4.8600    -1.3850 ha         1 PSC       0.168000
     88 H1          10.6150    -2.7230    -0.7760 ha         1 PSC       0.165000
     89 H141        11.6690    -4.9090     0.0400 hc         1 PSC       0.042700
     90 H142        10.7360    -5.7960    -1.1580 hc         1 PSC       0.042700
     91 H151        11.8960    -4.5160    -2.9930 hc         1 PSC       0.039700
     92 H152        12.8500    -3.6620    -1.7800 hc         1 PSC       0.039700
     93 H161        13.8250    -5.8550    -1.0130 hc         1 PSC       0.036700
     94 H162        12.8830    -6.6980    -2.2440 hc         1 PSC       0.036700
     95 H171        14.0860    -5.4050    -4.0410 hc         1 PSC       0.037200
     96 H172        15.0330    -4.5770    -2.8050 hc         1 PSC       0.037200
     97 H181        16.0280    -6.7780    -2.0840 hc         1 PSC       0.031367
     98 H182        15.0770    -7.6090    -3.3370 hc         1 PSC       0.031367
     99 H183        16.3380    -6.4470    -3.8020 hc         1 PSC       0.031367
    100 H201        -3.4670     5.0470     0.9670 hc         1 PSC       0.064700
    101 H202        -5.0660     5.5840     1.6100 hc         1 PSC       0.064700
    102 H211        -5.0940     3.5300     3.0580 hc         1 PSC       0.058200
    103 H212        -3.5420     3.0360     2.3940 hc         1 PSC       0.058200
    104 H221        -4.6300     2.9500     0.0790 hc         1 PSC       0.025700
    105 H222        -6.1730     3.3390     0.8370 hc         1 PSC       0.025700
    106 H231        -5.9440     1.2410     2.2580 hc         1 PSC       0.044700
    107 H232        -4.4670     0.8440     1.3800 hc         1 PSC       0.044700
    108 H241        -5.7990     0.7720    -0.7750 hc         1 PSC       0.031200
    109 H242        -7.2610     1.1380     0.1410 hc         1 PSC       0.031200
    110 H251        -6.9200    -0.9790     1.4840 hc         1 PSC       0.041200
    111 H252        -5.5080    -1.3570     0.4970 hc         1 PSC       0.041200
    112 H261        -6.9610    -1.4380    -1.5520 hc         1 PSC       0.034700
    113 H262        -8.3700    -1.0360    -0.5680 hc         1 PSC       0.034700
    114 H271        -8.0200    -3.1540     0.7640 hc         1 PSC       0.039200
    115 H272        -6.6520    -3.5640    -0.2710 hc         1 PSC       0.039200
    116 H281        -8.1850    -3.6210    -2.2650 hc         1 PSC       0.036200
    117 H282        -9.5480    -3.2030    -1.2260 hc         1 PSC       0.036200
    118 H291        -9.1800    -5.3240     0.0890 hc         1 PSC       0.038200
    119 H292        -7.8490    -5.7490    -0.9880 hc         1 PSC       0.038200
    120 H301        -9.4380    -5.8000    -2.9340 hc         1 PSC       0.036200
    121 H302       -10.7670    -5.3590    -1.8600 hc         1 PSC       0.036200
    122 H311       -10.4010    -7.4770    -0.5470 hc         1 PSC       0.037700
    123 H312        -9.0920    -7.9240    -1.6450 hc         1 PSC       0.037700
    124 H321       -10.7120    -7.9740    -3.5620 hc         1 PSC       0.036700
    125 H322       -12.0210    -7.5060    -2.4740 hc         1 PSC       0.036700
    126 H331       -11.6750    -9.6210    -1.1510 hc         1 PSC       0.036700
    127 H332       -10.3740   -10.0920    -2.2470 hc         1 PSC       0.036700
    128 H341       -12.0080   -10.1740    -4.1630 hc         1 PSC       0.031700
    129 H342       -12.4980   -11.2550    -2.8380 hc         1 PSC       0.031700
    130 H343       -13.3200    -9.6940    -3.0590 hc         1 PSC       0.031700
    131 O03         -2.0730     5.6040     2.9310 os         1 PSC      -0.402100
    132 O02          2.7150     4.8860     4.4370 o          1 PSC      -0.492000
@<TRIPOS>BOND
     1     1    13 1   
     2     1    14 1   
     3     1    15 1   
     4     1    16 1   
     5     2     7 1   
     6     2     8 1   
     7     2     9 1   
     8     2    10 1   
     9     3     4 1   
    10     3    51 1   
    11     3    52 1   
    12     3   131 1   
    13     4     5 1   
    14     4    11 1   
    15     4    53 1   
    16     5    13 1   
    17     5    54 1   
    18     5    55 1   
    19     6     7 1   
    20     6    14 1   
    21     6    56 1   
    22     6    57 1   
    23     7    58 1   
    24     7    59 1   
    25     8    60 1   
    26     8    61 1   
    27     8    62 1   
    28     9    63 1   
    29     9    64 1   
    30     9    65 1   
    31    10    66 1   
    32    10    67 1   
    33    10    68 1   
    34    11    17 1   
    35    12    35 2   
    36    17    18 1   
    37    17   132 2   
    38    18    19 1   
    39    18    69 1   
    40    18    70 1   
    41    19    20 1   
    42    19    71 1   
    43    19    72 1   
    44    20    21 1   
    45    20    73 1   
    46    20    74 1   
    47    21    22 1   
    48    21    75 1   
    49    21    76 1   
    50    22    23 1   
    51    22    77 1   
    52    22    78 1   
    53    23    24 1   
    54    23    79 1   
    55    23    80 1   
    56    24    25 1   
    57    24    81 1   
    58    24    82 1   
    59    25    26 2   
    60    25    83 1   
    61    26    27 1   
    62    26    84 1   
    63    27    28 1   
    64    27    85 1   
    65    27    86 1   
    66    28    29 2   
    67    28    87 1   
    68    29    30 1   
    69    29    88 1   
    70    30    31 1   
    71    30    89 1   
    72    30    90 1   
    73    31    32 1   
    74    31    91 1   
    75    31    92 1   
    76    32    33 1   
    77    32    93 1   
    78    32    94 1   
    79    33    34 1   
    80    33    95 1   
    81    33    96 1   
    82    34    97 1   
    83    34    98 1   
    84    34    99 1   
    85    35    36 1   
    86    35   131 1   
    87    36    37 1   
    88    36   100 1   
    89    36   101 1   
    90    37    38 1   
    91    37   102 1   
    92    37   103 1   
    93    38    39 1   
    94    38   104 1   
    95    38   105 1   
    96    39    40 1   
    97    39   106 1   
    98    39   107 1   
    99    40    41 1   
   100    40   108 1   
   101    40   109 1   
   102    41    42 1   
   103    41   110 1   
   104    41   111 1   
   105    42    43 1   
   106    42   112 1   
   107    42   113 1   
   108    43    44 1   
   109    43   114 1   
   110    43   115 1   
   111    44    45 1   
   112    44   116 1   
   113    44   117 1   
   114    45    46 1   
   115    45   118 1   
   116    45   119 1   
   117    46    47 1   
   118    46   120 1   
   119    46   121 1   
   120    47    48 1   
   121    47   122 1   
   122    47   123 1   
   123    48    49 1   
   124    48   124 1   
   125    48   125 1   
   126    49    50 1   
   127    49   126 1   
   128    49   127 1   
   129    50   128 1   
   130    50   129 1   
   131    50   130 1   
@<TRIPOS>SUBSTRUCTURE
     1 PSC         1 TEMP              0 ****  ****    0 ROOT
