@<TRIPOS>MOLECULE
PSF
   62    61     1     0     0
SMALL
No Charge or Current Charge


@<TRIPOS>ATOM
      1 O2           3.1070    -9.1190     4.8330 os         1 PSF      -0.596400
      2 O1           4.0290    -7.5000     3.2610 os         1 PSF      -0.613400
      3 P            4.0580    -9.0890     3.5340 p5         1 PSF       1.409800
      4 O4           5.4260    -9.5950     3.8490 o          1 PSF      -0.840500
      5 O3           3.4430    -9.8460     2.4050 o          1 PSF      -0.840500
      6 C2           1.6950    -8.9010     4.6700 c3         1 PSF       0.187600
      7 C3           0.9610    -9.2100     6.0080 c3         1 PSF       0.173300
      8 O11          1.3750    -8.2680     7.0300 os         1 PSF      -0.437100
      9 O12          0.1660    -6.5420     6.1120 o          1 PSF      -0.484000
     10 C1           0.9320    -6.9730     6.9630 c          1 PSF       0.600100
     11 C4           1.2600   -10.6360     6.5290 c3         1 PSF       0.161600
     12 C5           0.4750   -12.1360     8.2470 c          1 PSF       0.591100
     13 O51          1.3100   -12.9840     7.9640 o          1 PSF      -0.500000
     14 O52          0.3540   -10.9270     7.6160 os         1 PSF      -0.447100
     15 C6          -0.5240   -12.2770     9.3980 c3         1 PSF      -0.143400
     16 C7           0.0930   -11.8090    10.7370 c3         1 PSF      -0.067400
     17 C13          1.4910    -6.1240     8.1130 c3         1 PSF      -0.130400
     18 C14          2.8170    -5.4170     7.7390 c3         1 PSF      -0.066400
     19 C15          2.6840    -4.3820     6.5980 c3         1 PSF      -0.080400
     20 N            7.1510    -5.6640     4.4380 n8         1 PSF      -1.003200
     21 CA           6.2400    -6.4360     3.4930 c3         1 PSF      -0.015500
     22 CB           4.7960    -6.5930     4.0640 c3         1 PSF       0.259600
     23 C            6.1550    -5.8740     2.0230 c          1 PSF       0.703000
     24 OT1          5.7920    -4.7150     1.8640 o          1 PSF      -0.751000
     25 OT2          6.6310    -6.5460     1.1170 o          1 PSF      -0.751000
     26 C8          -0.8870   -11.9200    11.9250 c3         1 PSF      -0.077400
     27 C9          -0.2710   -11.4520    13.2620 c3         1 PSF      -0.076400
     28 C10         -1.2480   -11.5630    14.4480 c3         1 PSF      -0.087100
     29 C16          3.9900    -3.5980     6.3440 c3         1 PSF      -0.064400
     30 C17          3.8780    -2.6000     5.1760 c3         1 PSF      -0.090100
     31 H21          1.4930    -7.8680     4.3580 h1         1 PSF       0.068200
     32 H22          1.2850    -9.5620     3.8940 h1         1 PSF       0.068200
     33 H31         -0.1210    -9.1370     5.8340 h1         1 PSF       0.055700
     34 H41          2.3060   -10.6900     6.8600 h1         1 PSF       0.073200
     35 H42          1.1230   -11.3560     5.7120 h1         1 PSF       0.073200
     36 H61         -0.8240   -13.3270     9.4880 hc         1 PSF       0.066700
     37 H62         -1.3940   -11.6410     9.1960 hc         1 PSF       0.066700
     38 H71          0.4220   -10.7660    10.6370 hc         1 PSF       0.050700
     39 H72          0.9890   -12.4070    10.9500 hc         1 PSF       0.050700
     40 H131         1.7230    -6.7840     8.9580 hc         1 PSF       0.043700
     41 H132         0.7520    -5.3710     8.4080 hc         1 PSF       0.043700
     42 H141         3.5620    -6.1720     7.4580 hc         1 PSF       0.041700
     43 H142         3.2030    -4.9120     8.6340 hc         1 PSF       0.041700
     44 H151         1.8830    -3.6730     6.8430 hc         1 PSF       0.059200
     45 H152         2.3890    -4.8920     5.6730 hc         1 PSF       0.059200
     46 HA           6.6720    -7.4400     3.4090 h1         1 PSF       0.061700
     47 HB1          4.3050    -5.6120     4.0850 h1         1 PSF       0.011700
     48 HB2          4.8500    -6.9530     5.1000 h1         1 PSF       0.011700
     49 H81         -1.2140   -12.9630    12.0250 hc         1 PSF       0.034700
     50 H82         -1.7810   -11.3220    11.7120 hc         1 PSF       0.034700
     51 H91          0.6230   -12.0490    13.4800 hc         1 PSF       0.037700
     52 H92          0.0560   -10.4090    13.1660 hc         1 PSF       0.037700
     53 H101        -2.1390   -10.9470    14.2750 hc         1 PSF       0.026033
     54 H102        -1.5670   -12.6020    14.5920 hc         1 PSF       0.026033
     55 H103        -0.7680   -11.2200    15.3720 hc         1 PSF       0.026033
     56 H161         4.2680    -3.0510     7.2540 hc         1 PSF       0.030200
     57 H162         4.8040    -4.3020     6.1360 hc         1 PSF       0.030200
     58 H171         3.6350    -3.1200     4.2420 hc         1 PSF       0.035367
     59 H172         3.0950    -1.8580     5.3740 hc         1 PSF       0.035367
     60 H173         4.8260    -2.0680     5.0360 hc         1 PSF       0.035367
     61 H1           6.8590    -4.6790     4.4390 hn         1 PSF       0.369500
     62 H2           8.0960    -5.6290     4.0350 hn         1 PSF       0.369500
@<TRIPOS>BOND
     1     1     3 1   
     2     1     6 1   
     3     2     3 1   
     4     2    22 1   
     5     3     4 1   
     6     3     5 1   
     7     6     7 1   
     8     6    31 1   
     9     6    32 1   
    10     7     8 1   
    11     7    11 1   
    12     7    33 1   
    13     8    10 1   
    14     9    10 2   
    15    10    17 1   
    16    11    14 1   
    17    11    34 1   
    18    11    35 1   
    19    12    13 2   
    20    12    14 1   
    21    12    15 1   
    22    15    16 1   
    23    15    36 1   
    24    15    37 1   
    25    16    26 1   
    26    16    38 1   
    27    16    39 1   
    28    17    18 1   
    29    17    40 1   
    30    17    41 1   
    31    18    19 1   
    32    18    42 1   
    33    18    43 1   
    34    19    29 1   
    35    19    44 1   
    36    19    45 1   
    37    20    21 1   
    38    20    61 1   
    39    20    62 1   
    40    21    22 1   
    41    21    23 1   
    42    21    46 1   
    43    22    47 1   
    44    22    48 1   
    45    23    24 1   
    46    23    25 1   
    47    26    27 1   
    48    26    49 1   
    49    26    50 1   
    50    27    28 1   
    51    27    51 1   
    52    27    52 1   
    53    28    53 1   
    54    28    54 1   
    55    28    55 1   
    56    29    30 1   
    57    29    56 1   
    58    29    57 1   
    59    30    58 1   
    60    30    59 1   
    61    30    60 1   
@<TRIPOS>SUBSTRUCTURE
     1 PSF         1 TEMP              0 ****  ****    0 ROOT
