@<TRIPOS>MOLECULE
PSF
   62    61     1     0     0
SMALL
abcg2


@<TRIPOS>ATOM
      1 O2           4.1600    -8.0290     6.3220 os         1 PSF      -0.596400
      2 O1           5.3480    -6.6550     4.6100 os         1 PSF      -0.613400
      3 P            5.6280    -7.9230     5.6060 p5         1 PSF       1.409800
      4 O4           6.5670    -7.5050     6.6940 o          1 PSF      -0.840500
      5 O3           5.9000    -9.1560     4.7950 o          1 PSF      -0.840500
      6 C2           3.0260    -8.3890     5.5650 c3         1 PSF       0.187600
      7 C3           1.8690    -8.6260     6.5180 c3         1 PSF       0.173300
      8 O11          1.6770    -7.4790     7.3500 os         1 PSF      -0.437100
      9 O12          0.3680    -6.4440     5.8600 o          1 PSF      -0.484000
     10 C1           1.0050    -6.4300     6.8830 c          1 PSF       0.600100
     11 C4           2.1420    -9.7920     7.4410 c3         1 PSF       0.161600
     12 C5           1.0090   -10.9920     9.1250 c          1 PSF       0.591100
     13 O51          1.9520   -11.7330     9.2470 o          1 PSF      -0.500000
     14 O52          0.9790    -9.9970     8.2420 os         1 PSF      -0.447100
     15 C6          -0.2570   -11.0570     9.9330 c3         1 PSF      -0.143400
     16 C7          -0.2790   -12.2000    10.9350 c3         1 PSF      -0.067400
     17 C13          1.1790    -5.2400     7.7850 c3         1 PSF      -0.130400
     18 C14          2.6340    -4.7540     7.7960 c3         1 PSF      -0.066400
     19 C15          3.1320    -4.2860     6.4350 c3         1 PSF      -0.080400
     20 N            5.6960    -6.8960     0.9620 n8         1 PSF      -1.003200
     21 CA           4.9820    -7.0370     2.2320 c3         1 PSF      -0.015500
     22 CB           5.9400    -6.5960     3.3270 c3         1 PSF       0.259600
     23 C            3.6760    -6.2140     2.2750 c          1 PSF       0.703000
     24 OT1          3.8040    -4.9890     2.0590 o          1 PSF      -0.751000
     25 OT2          2.6050    -6.8190     2.4780 o          1 PSF      -0.751000
     26 C8          -1.5430   -12.1900    11.7870 c3         1 PSF      -0.077400
     27 C9          -1.5850   -13.3350    12.7910 c3         1 PSF      -0.076400
     28 C10         -2.8250   -13.3040    13.6730 c3         1 PSF      -0.087100
     29 C16          4.5700    -3.7850     6.4760 c3         1 PSF      -0.064400
     30 C17          5.0180    -3.1970     5.1460 c3         1 PSF      -0.090100
     31 H21          2.7700    -7.6120     4.8390 h1         1 PSF       0.068200
     32 H22          3.1920    -9.3120     4.9970 h1         1 PSF       0.068200
     33 H31          0.9720    -8.8300     5.9270 h1         1 PSF       0.055700
     34 H41          3.0100    -9.6020     8.0750 h1         1 PSF       0.073200
     35 H42          2.3490   -10.6770     6.8350 h1         1 PSF       0.073200
     36 H61         -1.1050   -11.1300     9.2460 hc         1 PSF       0.066700
     37 H62         -0.3780   -10.0960    10.4450 hc         1 PSF       0.066700
     38 H71          0.5950   -12.1370    11.5880 hc         1 PSF       0.050700
     39 H72         -0.2040   -13.1560    10.4090 hc         1 PSF       0.050700
     40 H131         0.8770    -5.5100     8.8000 hc         1 PSF       0.043700
     41 H132         0.5170    -4.4440     7.4420 hc         1 PSF       0.043700
     42 H141         3.2820    -5.5500     8.1690 hc         1 PSF       0.041700
     43 H142         2.7060    -3.9320     8.5120 hc         1 PSF       0.041700
     44 H151         2.4750    -3.4920     6.0620 hc         1 PSF       0.059200
     45 H152         3.0790    -5.1030     5.7070 hc         1 PSF       0.059200
     46 HA           4.7570    -8.0960     2.3800 h1         1 PSF       0.061700
     47 HB1          6.2280    -5.5550     3.1510 h1         1 PSF       0.011700
     48 HB2          6.8500    -7.2010     3.2670 h1         1 PSF       0.011700
     49 H81         -2.4250   -12.2420    11.1400 hc         1 PSF       0.034700
     50 H82         -1.6130   -11.2350    12.3200 hc         1 PSF       0.034700
     51 H91         -1.5390   -14.2870    12.2540 hc         1 PSF       0.037700
     52 H92         -0.6890   -13.2960    13.4180 hc         1 PSF       0.037700
     53 H101        -2.8710   -12.3820    14.2550 hc         1 PSF       0.026033
     54 H102        -3.7380   -13.3600    13.0760 hc         1 PSF       0.026033
     55 H103        -2.8380   -14.1390    14.3740 hc         1 PSF       0.026033
     56 H161         4.6760    -3.0330     7.2650 hc         1 PSF       0.030200
     57 H162         5.2240    -4.6180     6.7490 hc         1 PSF       0.030200
     58 H171         4.8850    -3.9160     4.3370 hc         1 PSF       0.035367
     59 H172         4.4370    -2.3070     4.8930 hc         1 PSF       0.035367
     60 H173         6.0690    -2.9060     5.1710 hc         1 PSF       0.035367
     61 H1           5.6930    -5.9130     0.7150 hn         1 PSF       0.369500
     62 H2           5.1710    -7.3570     0.2290 hn         1 PSF       0.369500
@<TRIPOS>BOND
     1     1     3 1   
     2     1     6 1   
     3     2     3 1   
     4     2    22 1   
     5     3     4 1   
     6     3     5 1   
     7     6     7 1   
     8     6    31 1   
     9     6    32 1   
    10     7     8 1   
    11     7    11 1   
    12     7    33 1   
    13     8    10 1   
    14     9    10 2   
    15    10    17 1   
    16    11    14 1   
    17    11    34 1   
    18    11    35 1   
    19    12    13 2   
    20    12    14 1   
    21    12    15 1   
    22    15    16 1   
    23    15    36 1   
    24    15    37 1   
    25    16    26 1   
    26    16    38 1   
    27    16    39 1   
    28    17    18 1   
    29    17    40 1   
    30    17    41 1   
    31    18    19 1   
    32    18    42 1   
    33    18    43 1   
    34    19    29 1   
    35    19    44 1   
    36    19    45 1   
    37    20    21 1   
    38    20    61 1   
    39    20    62 1   
    40    21    22 1   
    41    21    23 1   
    42    21    46 1   
    43    22    47 1   
    44    22    48 1   
    45    23    24 1   
    46    23    25 1   
    47    26    27 1   
    48    26    49 1   
    49    26    50 1   
    50    27    28 1   
    51    27    51 1   
    52    27    52 1   
    53    28    53 1   
    54    28    54 1   
    55    28    55 1   
    56    29    30 1   
    57    29    56 1   
    58    29    57 1   
    59    30    58 1   
    60    30    59 1   
    61    30    60 1   
@<TRIPOS>SUBSTRUCTURE
     1 PSF         1 TEMP              0 ****  ****    0 ROOT
