@<TRIPOS>MOLECULE
PSG
   36    37     1     0     0
SMALL
No Charge or Current Charge


@<TRIPOS>ATOM
      1 C7           0.9390    -2.4460    -5.3340 ca         1 PSG      -0.125000
      2 C8           1.3230    -2.0560    -6.6290 ca         1 PSG      -0.029500
      3 C9           2.6410    -2.2920    -7.0860 ca         1 PSG      -0.190200
      4 C10          3.5620    -2.9280    -6.2220 ca         1 PSG      -0.029500
      5 C11          3.1700    -3.3140    -4.9290 ca         1 PSG      -0.125000
      6 C12          1.8630    -3.0710    -4.4730 ca         1 PSG      -0.070000
      7 N1           3.0530    -1.8780    -8.4660 no         1 PSG       0.696200
      8 O11          2.2110    -1.3270    -9.1880 o          1 PSG      -0.399500
      9 O12          4.2170    -2.1040    -8.8220 o          1 PSG      -0.399500
     10 S1           1.4240    -3.5930    -2.8090 ss         1 PSG      -0.046000
     11 C1           0.0880    -2.4170    -2.2990 c6         1 PSG       0.229300
     12 C2          -0.3790    -2.6400    -0.8280 c6         1 PSG       0.161300
     13 C3          -1.4490    -1.5700    -0.4580 c6         1 PSG       0.112300
     14 C4          -0.9050    -0.1350    -0.7200 c6         1 PSG       0.101300
     15 C5          -0.4020    -0.0340    -2.1930 c6         1 PSG       0.084300
     16 C6           0.2790     1.3290    -2.5130 c3         1 PSG       0.171600
     17 O2          -0.9310    -3.9580    -0.6240 oh         1 PSG      -0.673000
     18 O3          -1.8500    -1.7090     0.9150 oh         1 PSG      -0.631000
     19 O4          -1.9230     0.8490    -0.4330 oh         1 PSG      -0.705000
     20 O5           0.5830    -1.0650    -2.4500 os         1 PSG      -0.440000
     21 O6           1.0410     1.2360    -3.7260 oh         1 PSG      -0.711000
     22 H7          -0.0840    -2.2630    -5.0160 ha         1 PSG       0.135000
     23 H8           0.5880    -1.5740    -7.2720 ha         1 PSG       0.153500
     24 H10          4.5840    -3.1270    -6.5430 ha         1 PSG       0.153500
     25 H11          3.8890    -3.8020    -4.2750 ha         1 PSG       0.135000
     26 H1          -0.7600    -2.5840    -2.9780 h2         1 PSG       0.056700
     27 H2           0.4960    -2.4900    -0.1770 h1         1 PSG       0.112700
     28 H3          -2.3230    -1.7250    -1.1080 h1         1 PSG       0.020700
     29 H4          -0.0360     0.0240    -0.0620 h1         1 PSG       0.105700
     30 H5          -1.2440    -0.1750    -2.8880 h1         1 PSG       0.045700
     31 H62          0.9360     1.5940    -1.6730 h1         1 PSG       0.061700
     32 H61         -0.4920     2.1080    -2.5900 h1         1 PSG       0.061700
     33 H2O1        -1.4720    -3.8810     0.1980 ho         1 PSG       0.503000
     34 H3O1        -2.2330    -0.8370     1.1680 ho         1 PSG       0.458000
     35 H4O1        -2.6580     0.7220    -1.0790 ho         1 PSG       0.503000
     36 H6O1         1.3370     0.2930    -3.7440 ho         1 PSG       0.513000
@<TRIPOS>BOND
     1     1     2 ar  
     2     1     6 ar  
     3     1    22 1   
     4     2     3 ar  
     5     2    23 1   
     6     3     4 ar  
     7     3     7 1   
     8     4     5 ar  
     9     4    24 1   
    10     5     6 ar  
    11     5    25 1   
    12     6    10 1   
    13     7     8 1   
    14     7     9 1   
    15    10    11 1   
    16    11    12 1   
    17    11    20 1   
    18    11    26 1   
    19    12    13 1   
    20    12    17 1   
    21    12    27 1   
    22    13    14 1   
    23    13    18 1   
    24    13    28 1   
    25    14    15 1   
    26    14    19 1   
    27    14    29 1   
    28    15    16 1   
    29    15    20 1   
    30    15    30 1   
    31    16    21 1   
    32    16    31 1   
    33    16    32 1   
    34    17    33 1   
    35    18    34 1   
    36    19    35 1   
    37    21    36 1   
@<TRIPOS>SUBSTRUCTURE
     1 PSG         1 TEMP              0 ****  ****    0 ROOT
