@<TRIPOS>MOLECULE
PSG
   36    37     1     0     0
SMALL
bcc


@<TRIPOS>ATOM
      1 C7           1.3450    -1.8830    -5.1380 ca         1 PSG      -0.143000
      2 C8           1.5970    -1.7730    -6.4940 ca         1 PSG      -0.047500
      3 C9           2.5700    -2.5700    -7.0760 ca         1 PSG      -0.190200
      4 C10          3.2970    -3.4820    -6.3210 ca         1 PSG      -0.047500
      5 C11          3.0320    -3.5980    -4.9720 ca         1 PSG      -0.143000
      6 C12          2.0520    -2.8060    -4.3660 ca         1 PSG       0.056900
      7 N1           2.8340    -2.4510    -8.4950 no         1 PSG       0.316200
      8 O11          2.1860    -1.6510    -9.1310 o          1 PSG      -0.209500
      9 O12          3.6880    -3.1590    -8.9770 o          1 PSG      -0.209500
     10 S1           1.8240    -3.0620    -2.6470 ss         1 PSG      -0.125000
     11 C1           0.3470    -2.1060    -2.2550 c6         1 PSG       0.158200
     12 C2          -0.1490    -2.5310    -0.8660 c6         1 PSG       0.138100
     13 C3          -1.3620    -1.6690    -0.5150 c6         1 PSG       0.089100
     14 C4          -1.0400    -0.1800    -0.6820 c6         1 PSG       0.078100
     15 C5          -0.4680     0.0830    -2.0740 c6         1 PSG       0.061100
     16 C6          -0.0110     1.5160    -2.2750 c3         1 PSG       0.148400
     17 O2          -0.4130    -3.9020    -0.7940 oh         1 PSG      -0.550800
     18 O3          -1.7440    -1.9720     0.7980 oh         1 PSG      -0.568800
     19 O4          -2.1660     0.6170    -0.4020 oh         1 PSG      -0.582800
     20 O5           0.6700    -0.7460    -2.2620 os         1 PSG      -0.393600
     21 O6           0.4890     1.7380    -3.5710 oh         1 PSG      -0.588800
     22 H7           0.6000    -1.2330    -4.7060 ha         1 PSG       0.153000
     23 H8           1.0370    -1.0570    -7.0780 ha         1 PSG       0.171500
     24 H10          4.0570    -4.1050    -6.7680 ha         1 PSG       0.171500
     25 H11          3.5890    -4.3190    -4.3870 ha         1 PSG       0.153000
     26 H1          -0.4250    -2.3300    -3.0090 h2         1 PSG       0.056700
     27 H2           0.6460    -2.3300    -0.1390 h1         1 PSG       0.112700
     28 H3          -2.1690    -1.9200    -1.2290 h1         1 PSG       0.020700
     29 H4          -0.2840     0.0960     0.0620 h1         1 PSG       0.105700
     30 H5          -1.2280    -0.1570    -2.8370 h1         1 PSG       0.045700
     31 H62          0.7260     1.7750    -1.5030 h1         1 PSG       0.061700
     32 H61         -0.8670     2.1790    -2.1420 h1         1 PSG       0.061700
     33 H2O1        -1.1440    -4.1170    -1.3840 ho         1 PSG       0.404000
     34 H3O1        -2.4780    -1.3950     1.0350 ho         1 PSG       0.419000
     35 H4O1        -2.8560     0.4330    -1.0510 ho         1 PSG       0.404000
     36 H6O1         1.2990     1.2290    -3.6700 ho         1 PSG       0.414000
@<TRIPOS>BOND
     1     1     2 ar  
     2     1     6 ar  
     3     1    22 1   
     4     2     3 ar  
     5     2    23 1   
     6     3     4 ar  
     7     3     7 1   
     8     4     5 ar  
     9     4    24 1   
    10     5     6 ar  
    11     5    25 1   
    12     6    10 1   
    13     7     8 1   
    14     7     9 1   
    15    10    11 1   
    16    11    12 1   
    17    11    20 1   
    18    11    26 1   
    19    12    13 1   
    20    12    17 1   
    21    12    27 1   
    22    13    14 1   
    23    13    18 1   
    24    13    28 1   
    25    14    15 1   
    26    14    19 1   
    27    14    29 1   
    28    15    16 1   
    29    15    20 1   
    30    15    30 1   
    31    16    21 1   
    32    16    31 1   
    33    16    32 1   
    34    17    33 1   
    35    18    34 1   
    36    19    35 1   
    37    21    36 1   
@<TRIPOS>SUBSTRUCTURE
     1 PSG         1 TEMP              0 ****  ****    0 ROOT
