@<TRIPOS>MOLECULE
PSH
   23    23     1     0     0
SMALL
abcg2


@<TRIPOS>ATOM
      1 N          -17.4650    32.8770    21.2810 n8         1 PSH      -1.028200
      2 CA         -18.1740    32.5050    20.0610 c3         1 PSH       0.022500
      3 CB         -19.5320    33.2180    19.9500 c3         1 PSH      -0.082700
      4 CG         -19.4060    34.6950    19.7820 cc         1 PSH       0.227300
      5 CD2        -19.3930    35.4180    18.6250 cd         1 PSH      -0.177000
      6 ND1        -19.2250    35.5410    20.8500 nc         1 PSH      -0.734000
      7 CE1        -19.1020    36.7370    20.3390 cd         1 PSH       0.400400
      8 NE2        -19.2010    36.7300    18.9880 na         1 PSH      -0.175000
      9 C          -17.3500    32.7410    18.7660 c          1 PSH       0.706000
     10 O          -16.2350    33.2850    18.8890 o          1 PSH      -0.741000
     11 P          -18.9710    38.1060    17.9230 p5         1 PSH       1.107900
     12 S          -16.8440    38.1900    17.7650 sh         1 PSH      -0.674200
     13 O1         -19.3260    39.3170    18.7150 o          1 PSH      -0.760000
     14 O2         -19.5560    37.7150    16.6110 o          1 PSH      -0.760000
     15 OXT        -17.8810    32.3500    17.7070 o          1 PSH      -0.741000
     16 HN1        -16.5320    33.1560    20.9990 hn         1 PSH       0.399500
     17 HN2        -17.8790    33.7100    21.6810 hn         1 PSH       0.399500
     18 HA         -18.3970    31.4290    20.0900 h1         1 PSH       0.022700
     19 HB1        -20.1210    33.0040    20.8470 hc         1 PSH       0.024200
     20 HB2        -20.0780    32.7950    19.1080 hc         1 PSH       0.024200
     21 HD2        -19.5000    35.1140    17.5980 h4         1 PSH       0.169000
     22 HE1        -18.9440    37.6450    20.9010 h5         1 PSH       0.044100
     23 HS         -16.6800    37.1250    16.9700 hs         1 PSH       0.326800
@<TRIPOS>BOND
     1     1     2 1   
     2     1    16 1   
     3     1    17 1   
     4     2     3 1   
     5     2     9 1   
     6     2    18 1   
     7     3     4 1   
     8     3    19 1   
     9     3    20 1   
    10     4     5 2   
    11     4     6 1   
    12     5     8 1   
    13     5    21 1   
    14     6     7 2   
    15     7     8 1   
    16     7    22 1   
    17     8    11 1   
    18     9    10 1   
    19     9    15 1   
    20    11    12 1   
    21    11    13 1   
    22    11    14 1   
    23    12    23 1   
@<TRIPOS>SUBSTRUCTURE
     1 PSH         1 TEMP              0 ****  ****    0 ROOT
