@<TRIPOS>MOLECULE
PSH
   23    23     1     0     0
SMALL
No Charge or Current Charge


@<TRIPOS>ATOM
      1 N          -17.6190    32.6700    21.4500 n8         1 PSH      -1.028200
      2 CA         -18.1930    32.4630    20.0710 c3         1 PSH       0.022500
      3 CB         -19.5140    33.2670    19.9290 c3         1 PSH      -0.082700
      4 CG         -19.3150    34.7530    19.7410 cc         1 PSH       0.227300
      5 CD2        -19.3480    35.4470    18.5620 cd         1 PSH      -0.177000
      6 ND1        -19.0990    35.5900    20.8050 nc         1 PSH      -0.734000
      7 CE1        -18.9870    36.8130    20.2950 cd         1 PSH       0.400400
      8 NE2        -19.1330    36.7660    18.9290 na         1 PSH      -0.175000
      9 C          -17.2240    32.7330    18.8370 c          1 PSH       0.706000
     10 O          -16.1080    33.1900    19.0540 o          1 PSH      -0.741000
     11 P          -19.0630    38.2530    17.8740 p5         1 PSH       1.107900
     12 S          -16.9810    38.2460    17.6460 sh         1 PSH      -0.674200
     13 O1         -19.5180    39.4670    18.6150 o          1 PSH      -0.760000
     14 O2         -19.7380    38.0210    16.5640 o          1 PSH      -0.760000
     15 OXT        -17.6000    32.4060    17.7190 o          1 PSH      -0.741000
     16 HN1        -16.6290    32.3940    21.4240 hn         1 PSH       0.399500
     17 HN2        -17.5650    33.6860    21.6050 hn         1 PSH       0.399500
     18 HA         -18.4480    31.3960    20.0120 h1         1 PSH       0.022700
     19 HB1        -20.1570    33.0810    20.7980 hc         1 PSH       0.024200
     20 HB2        -20.0660    32.8740    19.0670 hc         1 PSH       0.024200
     21 HD2        -19.5070    35.1170    17.5420 h4         1 PSH       0.169000
     22 HE1        -18.8100    37.7370    20.8340 h5         1 PSH       0.044100
     23 HS         -17.1690    37.0320    17.0730 hs         1 PSH       0.326800
@<TRIPOS>BOND
     1     1     2 1   
     2     1    16 1   
     3     1    17 1   
     4     2     3 1   
     5     2     9 1   
     6     2    18 1   
     7     3     4 1   
     8     3    19 1   
     9     3    20 1   
    10     4     5 2   
    11     4     6 1   
    12     5     8 1   
    13     5    21 1   
    14     6     7 2   
    15     7     8 1   
    16     7    22 1   
    17     8    11 1   
    18     9    10 1   
    19     9    15 1   
    20    11    12 1   
    21    11    13 1   
    22    11    14 1   
    23    12    23 1   
@<TRIPOS>SUBSTRUCTURE
     1 PSH         1 TEMP              0 ****  ****    0 ROOT
