@<TRIPOS>MOLECULE
PSI
   88    85     1     0     0
SMALL
bcc


@<TRIPOS>ATOM
      1 N          -13.7960    14.5440    35.6670 n8         1 PSI      -0.863800
      2 CA         -12.4710    14.6260    35.0880 c3         1 PSI       0.091500
      3 C          -12.4510    15.6700    33.9770 c          1 PSI       0.665100
      4 O          -13.4290    15.9380    33.3000 o          1 PSI      -0.570100
      5 CB         -12.0950    13.2790    34.4700 c3         1 PSI      -0.093100
      6 N1         -11.2500    16.2450    33.7720 ns         1 PSI      -0.563900
      7 CA1        -10.9750    17.0290    32.5960 c3         1 PSI       0.036700
      8 C1         -10.8870    16.1270    31.3600 c          1 PSI       0.653100
      9 O1         -10.3860    15.0160    31.4240 o          1 PSI      -0.606100
     10 CB1         -9.6570    17.7760    32.7640 c3         1 PSI      -0.103100
     11 C3          -8.0960    17.3400    26.0870 c          1 PSI       0.674100
     12 O2          -7.4550    16.3010    26.0300 o          1 PSI      -0.608100
     13 CA3         -8.2360    18.1210    27.3760 c3         1 PSI      -0.160400
     14 C2         -10.4920    17.0520    27.9560 c3         1 PSI       0.126100
     15 OS         -11.2700    18.2270    27.8620 oh         1 PSI      -0.605800
     16 CA2        -11.2170    16.1040    28.9120 c3         1 PSI       0.121700
     17 N2         -11.3400    16.6890    30.2290 ns         1 PSI      -0.557900
     18 CB2        -12.5850    15.6840    28.3550 c3         1 PSI      -0.038100
     19 CG         -13.2260    14.5810    29.1490 ca         1 PSI      -0.086300
     20 CD1        -12.7110    13.2850    29.1040 ca         1 PSI      -0.113500
     21 CD2        -14.3390    14.8220    29.9480 ca         1 PSI      -0.113500
     22 CE1        -13.2930    12.2600    29.8340 ca         1 PSI      -0.121500
     23 CE2        -14.9290    13.7980    30.6800 ca         1 PSI      -0.121500
     24 CZ         -14.4070    12.5130    30.6260 ca         1 PSI      -0.130000
     25 N4          -8.7760    17.8360    25.0340 ns         1 PSI      -0.569900
     26 CA4         -8.8520    17.1720    23.7520 c3         1 PSI       0.037700
     27 C4          -7.7170    17.7210    22.8840 c          1 PSI       0.659100
     28 O3          -7.7370    18.8650    22.4700 o          1 PSI      -0.586100
     29 CB3        -10.2210    17.3750    23.0960 c3         1 PSI      -0.067700
     30 CG1        -10.2740    16.6480    21.7560 c3         1 PSI      -0.090100
     31 CG2        -11.3390    16.8840    24.0110 c3         1 PSI      -0.090100
     32 N5          -6.7040    16.8600    22.6660 ns         1 PSI      -0.552900
     33 CA5         -5.4410    17.2170    22.0790 c6         1 PSI       0.018700
     34 C5          -4.8520    18.4530    22.7440 c          1 PSI       0.737600
     35 O4          -5.1590    18.8580    23.8270 o          1 PSI      -0.539500
     36 CB4         -5.3940    17.2190    20.5400 c6         1 PSI      -0.018500
     37 CG11        -6.4920    17.9930    19.8150 c3         1 PSI      -0.077100
     38 CG21        -4.0510    17.7360    20.1320 c2         1 PSI      -0.257200
     39 C6          -3.3830    18.5900    20.8880 c2         1 PSI       0.047100
     40 O5          -3.8380    19.0560    22.1010 os         1 PSI      -0.345200
     41 H          -13.8000    13.8120    36.3670 hn         1 PSI       0.342300
     42 H2         -14.0140    15.3990    36.1630 hn         1 PSI       0.342300
     43 HA         -11.6930    14.8880    35.8210 h1         1 PSI       0.014700
     44 HB1        -11.1060    13.3140    34.0160 hc         1 PSI       0.050700
     45 HB2        -12.0820    12.5030    35.2370 hc         1 PSI       0.050700
     46 HB3        -12.8170    12.9920    33.7050 hc         1 PSI       0.050700
     47 H1         -10.4620    15.9250    34.3150 hn         1 PSI       0.316500
     48 HA1        -11.7780    17.7580    32.4640 h1         1 PSI       0.078700
     49 HB11        -9.4380    18.3750    31.8810 hc         1 PSI       0.048700
     50 HB21        -9.7090    18.4450    33.6230 hc         1 PSI       0.048700
     51 HB31        -8.8290    17.0820    32.9160 hc         1 PSI       0.048700
     52 HA3         -7.2360    18.2900    27.7820 hc         1 PSI       0.066200
     53 HM2         -9.0690    17.8910    29.3420 hc         1 PSI       0.067700
     54 HA2        -10.5950    15.2120    29.0070 h1         1 PSI       0.087700
     55 H3         -11.7740    17.5980    30.2850 hn         1 PSI       0.324500
     56 HB12       -13.2490    16.5500    28.3180 hc         1 PSI       0.053200
     57 HB22       -12.4410    15.3540    27.3220 hc         1 PSI       0.053200
     58 HD1        -11.8460    13.0760    28.4840 ha         1 PSI       0.126000
     59 HD2        -14.7570    15.8210    29.9930 ha         1 PSI       0.126000
     60 HE1        -12.8810    11.2600    29.7820 ha         1 PSI       0.130000
     61 HE2        -15.7970    14.0050    31.2920 ha         1 PSI       0.130000
     62 HZ         -14.8660    11.7140    31.1940 ha         1 PSI       0.127000
     63 HC         -10.4640    16.5300    26.9880 h1         1 PSI       0.040700
     64 HOS        -10.9440    18.7780    27.1450 ho         1 PSI       0.403000
     65 HM3         -8.5590    16.3840    28.6040 hc         1 PSI       0.067700
     66 HA31        -8.6690    19.1090    27.2060 hc         1 PSI       0.066200
     67 H5          -9.2320    18.7320    25.1220 hn         1 PSI       0.322500
     68 HA4         -8.7150    16.1010    23.9260 h1         1 PSI       0.079700
     69 HB         -10.3600    18.4470    22.9180 hc         1 PSI       0.068700
     70 HG11       -11.2550    16.7710    21.2970 hc         1 PSI       0.038533
     71 HG12        -9.5360    17.0230    21.0450 hc         1 PSI       0.038533
     72 HG13       -10.1000    15.5780    21.8870 hc         1 PSI       0.038533
     73 HG21       -12.3060    17.0030    23.5210 hc         1 PSI       0.038533
     74 HG22       -11.2160    15.8250    24.2480 hc         1 PSI       0.038533
     75 HG23       -11.3810    17.4340    24.9510 hc         1 PSI       0.038533
     76 H6          -6.7520    15.9590    23.1130 hn         1 PSI       0.330500
     77 HA5         -4.7430    16.4250    22.3800 h1         1 PSI       0.072700
     78 HB4         -5.4740    16.1720    20.2370 hc         1 PSI       0.059700
     79 HG14        -6.3330    17.9100    18.7390 hc         1 PSI       0.045033
     80 HG15        -7.4790    17.5840    20.0300 hc         1 PSI       0.045033
     81 HG16        -6.4870    19.0490    20.0760 hc         1 PSI       0.045033
     82 HG24        -3.6260    17.4480    19.1800 ha         1 PSI       0.149000
     83 HG25        -4.6550    21.2980    18.4590 DU         1 PSI       0.000000
     84 HG26        -2.3680    15.5780    21.9430 DU         1 PSI       0.000000
     85 H22         -2.4270    19.0260    20.6360 h4         1 PSI       0.173000
     86 H31         -2.4510    15.0360    22.4450 DU         1 PSI       0.000000
     87 H7          -4.3160    20.7070    18.7570 DU         1 PSI       0.000000
     88 CM          -9.0590    17.3340    28.4020 c3         1 PSI      -0.104400
@<TRIPOS>BOND
     1     1     2 1   
     2     1    41 1   
     3     1    42 1   
     4     2     3 1   
     5     2     5 1   
     6     2    43 1   
     7     3     4 2   
     8     3     6 1   
     9     5    44 1   
    10     5    45 1   
    11     5    46 1   
    12     6     7 1   
    13     6    47 1   
    14     7     8 1   
    15     7    10 1   
    16     7    48 1   
    17     8     9 2   
    18     8    17 1   
    19    10    49 1   
    20    10    50 1   
    21    10    51 1   
    22    11    12 2   
    23    11    13 1   
    24    11    25 1   
    25    13    52 1   
    26    13    66 1   
    27    13    88 1   
    28    14    15 1   
    29    14    16 1   
    30    14    63 1   
    31    14    88 1   
    32    15    64 1   
    33    16    17 1   
    34    16    18 1   
    35    16    54 1   
    36    17    55 1   
    37    18    19 1   
    38    18    56 1   
    39    18    57 1   
    40    19    20 ar  
    41    19    21 ar  
    42    20    22 ar  
    43    20    58 1   
    44    21    23 ar  
    45    21    59 1   
    46    22    24 ar  
    47    22    60 1   
    48    23    24 ar  
    49    23    61 1   
    50    24    62 1   
    51    25    26 1   
    52    25    67 1   
    53    26    27 1   
    54    26    29 1   
    55    26    68 1   
    56    27    28 2   
    57    27    32 1   
    58    29    30 1   
    59    29    31 1   
    60    29    69 1   
    61    30    70 1   
    62    30    71 1   
    63    30    72 1   
    64    31    73 1   
    65    31    74 1   
    66    31    75 1   
    67    32    33 1   
    68    32    76 1   
    69    33    34 1   
    70    33    36 1   
    71    33    77 1   
    72    34    35 2   
    73    34    40 1   
    74    36    37 1   
    75    36    38 1   
    76    36    78 1   
    77    37    79 1   
    78    37    80 1   
    79    37    81 1   
    80    38    39 2   
    81    38    82 1   
    82    39    40 1   
    83    39    85 1   
    84    53    88 1   
    85    65    88 1   
@<TRIPOS>SUBSTRUCTURE
     1 PSI         1 TEMP              0 ****  ****    0 ROOT
