@<TRIPOS>MOLECULE
PSJ
   24    23     1     0     0
SMALL
bcc


@<TRIPOS>ATOM
      1 C1          -2.7590    -0.6590     0.7350 c3         1 PSJ       0.047400
      2 O1          -3.9000    -1.1650     0.1150 oh         1 PSJ      -0.561800
      3 C2          -1.9610     0.1600    -0.2340 c          1 PSJ       0.548100
      4 O2          -2.3700     0.4760    -1.3250 o          1 PSJ      -0.483100
      5 C3          -0.5920     0.6390     0.2440 c3         1 PSJ       0.022100
      6 O3          -0.4090     1.9900    -0.0860 oh         1 PSJ      -0.573800
      7 C4           0.4840    -0.2600    -0.4010 c3         1 PSJ       0.076100
      8 O4           0.0420    -1.5950    -0.5080 oh         1 PSJ      -0.582800
      9 C5           1.8430    -0.1950     0.3200 c3         1 PSJ       0.121100
     10 O5           2.1570     1.0820     0.8130 oh         1 PSJ      -0.564800
     11 C6           2.9330    -0.7390    -0.5900 c3         1 PSJ       0.107400
     12 O6           4.1230    -0.8730     0.1490 oh         1 PSJ      -0.583800
     13 H1          -2.9870     0.0120     1.5790 h1         1 PSJ       0.036200
     14 H1A         -2.1090    -1.4400     1.1530 h1         1 PSJ       0.036200
     15 HO1         -4.4180    -1.6280     0.7790 ho         1 PSJ       0.409000
     16 H3          -0.5390     0.5660     1.3360 h1         1 PSJ       0.093700
     17 HO3         -0.6220     2.1050    -1.0210 ho         1 PSJ       0.420000
     18 H4           0.6030     0.0910    -1.4340 h1         1 PSJ       0.080700
     19 HO4          0.1420    -2.0330     0.3440 ho         1 PSJ       0.405000
     20 H5           1.7760    -0.8360     1.2080 h1         1 PSJ       0.077700
     21 HO5          2.0820     1.7240     0.0990 ho         1 PSJ       0.410000
     22 H6           2.6050    -1.6980    -1.0080 h1         1 PSJ       0.027200
     23 H6A          3.0550    -0.0490    -1.4380 h1         1 PSJ       0.027200
     24 HO6          4.7890    -1.2600    -0.4260 ho         1 PSJ       0.406000
@<TRIPOS>BOND
     1     1     2 1   
     2     1     3 1   
     3     1    13 1   
     4     1    14 1   
     5     2    15 1   
     6     3     4 2   
     7     3     5 1   
     8     5     6 1   
     9     5     7 1   
    10     5    16 1   
    11     6    17 1   
    12     7     8 1   
    13     7     9 1   
    14     7    18 1   
    15     8    19 1   
    16     9    10 1   
    17     9    11 1   
    18     9    20 1   
    19    10    21 1   
    20    11    12 1   
    21    11    22 1   
    22    11    23 1   
    23    12    24 1   
@<TRIPOS>SUBSTRUCTURE
     1 PSJ         1 TEMP              0 ****  ****    0 ROOT
