@<TRIPOS>MOLECULE
PSJ
   24    23     1     0     0
SMALL
No Charge or Current Charge


@<TRIPOS>ATOM
      1 C1          -2.7800    -0.8690     0.3470 c3         1 PSJ       0.070600
      2 O1          -4.1710    -0.5530     0.6010 oh         1 PSJ      -0.624000
      3 C2          -2.0030     0.2730    -0.3780 c          1 PSJ       0.548100
      4 O2          -2.5470     1.0060    -1.2030 o          1 PSJ      -0.483100
      5 C3          -0.5930     0.6390     0.1930 c3         1 PSJ       0.045300
      6 O3          -0.2570     2.0360    -0.0760 oh         1 PSJ      -0.696000
      7 C4           0.5250    -0.3060    -0.3650 c3         1 PSJ       0.099300
      8 O4           0.1530    -1.6790    -0.1320 oh         1 PSJ      -0.705000
      9 C5           1.9570    -0.0260     0.2190 c3         1 PSJ       0.144300
     10 O5           2.2940     1.3580     0.0070 oh         1 PSJ      -0.687000
     11 C6           3.0570    -0.9430    -0.4070 c3         1 PSJ       0.130600
     12 O6           4.3290    -0.7710     0.2490 oh         1 PSJ      -0.706000
     13 H1          -2.2680    -1.0850     1.2930 h1         1 PSJ       0.036200
     14 H1A         -2.6980    -1.7680    -0.2790 h1         1 PSJ       0.036200
     15 HO1         -4.5810    -1.3400     1.0280 ho         1 PSJ       0.448000
     16 H3          -0.6540     0.4840     1.2790 h1         1 PSJ       0.093700
     17 HO3         -1.0420     2.4460    -0.5210 ho         1 PSJ       0.519000
     18 H4           0.5780    -0.1340    -1.4510 h1         1 PSJ       0.080700
     19 HO4          0.4540    -1.9400     0.7710 ho         1 PSJ       0.504000
     20 H5           1.9230    -0.2310     1.2980 h1         1 PSJ       0.077700
     21 HO5          1.4100     1.8250    -0.0090 ho         1 PSJ       0.509000
     22 H6           2.7450    -1.9930    -0.3260 h1         1 PSJ       0.027200
     23 H6A          3.1460    -0.7140    -1.4780 h1         1 PSJ       0.027200
     24 HO6          4.9900    -1.3010    -0.2560 ho         1 PSJ       0.505000
@<TRIPOS>BOND
     1     1     2 1   
     2     1     3 1   
     3     1    13 1   
     4     1    14 1   
     5     2    15 1   
     6     3     4 2   
     7     3     5 1   
     8     5     6 1   
     9     5     7 1   
    10     5    16 1   
    11     6    17 1   
    12     7     8 1   
    13     7     9 1   
    14     7    18 1   
    15     8    19 1   
    16     9    10 1   
    17     9    11 1   
    18     9    20 1   
    19    10    21 1   
    20    11    12 1   
    21    11    22 1   
    22    11    23 1   
    23    12    24 1   
@<TRIPOS>SUBSTRUCTURE
     1 PSJ         1 TEMP              0 ****  ****    0 ROOT
