@<TRIPOS>MOLECULE
PSK
   26    25     1     0     0
SMALL
No Charge or Current Charge


@<TRIPOS>ATOM
      1 CAA          4.1220     1.1520    -1.1790 c3         1 PSK      -0.081100
      2 CAJ          3.2450    -0.0890    -0.9000 c3         1 PSK      -0.115400
      3 CAQ          2.0510     0.1830     0.0530 c3         1 PSK       0.182300
      4 OAG          2.5570     0.5430     1.3420 oh         1 PSK      -0.649000
      5 CAP          1.0800    -1.0250     0.1780 c3         1 PSK      -0.196700
      6 CAB          1.6590    -2.2690     0.9080 c3         1 PSK      -0.079100
      7 CAN         -0.2760    -0.5990     0.7820 c          1 PSK       0.616100
      8 OAE         -0.3800    -0.2070     1.9350 o          1 PSK      -0.556100
      9 CAL         -1.5150    -1.0020     0.0250 c3         1 PSK      -0.535400
     10 P1          -2.0390     0.6020    -0.5790 p5         1 PSK       1.250400
     11 OAH         -1.0350     1.1190    -1.5560 o          1 PSK      -0.821500
     12 OAF         -3.4200     0.4980    -1.1430 o          1 PSK      -0.821500
     13 HAA1         3.5210     1.9630    -1.6080 hc         1 PSK       0.027033
     14 HAA2         4.5930     1.5180    -0.2590 hc         1 PSK       0.027033
     15 HAA3         4.9170     0.9030    -1.8920 hc         1 PSK       0.027033
     16 HAJ1         2.8600    -0.4560    -1.8590 hc         1 PSK       0.042700
     17 HAJ2         3.8800    -0.8840    -0.4910 hc         1 PSK       0.042700
     18 HAQ          1.4840     1.0260    -0.3730 h1         1 PSK       0.094700
     19 HOAG         3.0030    -0.2530     1.6990 ho         1 PSK       0.418000
     20 HAP          0.8710    -1.3410    -0.8500 hc         1 PSK       0.100700
     21 HAB1         2.5750    -2.6250     0.4240 hc         1 PSK       0.027033
     22 HAB2         1.8840    -2.0480     1.9580 hc         1 PSK       0.027033
     23 HAB3         0.9320    -3.0910     0.8880 hc         1 PSK       0.027033
     24 HAL1        -1.3270    -1.6250    -0.8540 hc         1 PSK       0.069700
     25 HAL2        -2.3010    -1.3870     0.6810 hc         1 PSK       0.069700
     26 HP1         -2.0230     1.3410     0.6290 hp         1 PSK      -0.196400
@<TRIPOS>BOND
     1     1     2 1   
     2     1    13 1   
     3     1    14 1   
     4     1    15 1   
     5     2     3 1   
     6     2    16 1   
     7     2    17 1   
     8     3     4 1   
     9     3     5 1   
    10     3    18 1   
    11     4    19 1   
    12     5     6 1   
    13     5     7 1   
    14     5    20 1   
    15     6    21 1   
    16     6    22 1   
    17     6    23 1   
    18     7     8 2   
    19     7     9 1   
    20     9    10 1   
    21     9    24 1   
    22     9    25 1   
    23    10    11 1   
    24    10    12 1   
    25    10    26 1   
@<TRIPOS>SUBSTRUCTURE
     1 PSK         1 TEMP              0 ****  ****    0 ROOT
