@<TRIPOS>MOLECULE
PSK
   26    25     1     0     0
SMALL
abcg2


@<TRIPOS>ATOM
      1 CAA          4.3320     1.0580    -0.9600 c3         1 PSK      -0.081100
      2 CAJ          3.2140     0.0240    -0.9420 c3         1 PSK      -0.115400
      3 CAQ          2.2100     0.2410     0.1890 c3         1 PSK       0.182300
      4 OAG          2.8360     0.2600     1.4550 oh         1 PSK      -0.649000
      5 CAP          1.0580    -0.7710     0.1140 c3         1 PSK      -0.196700
      6 CAB          1.4580    -2.1660     0.6120 c3         1 PSK      -0.079100
      7 CAN         -0.1820    -0.3130     0.8520 c          1 PSK       0.616100
      8 OAE         -0.1560     0.5520     1.7040 o          1 PSK      -0.556100
      9 CAL         -1.4730    -0.9340     0.4250 c3         1 PSK      -0.535400
     10 P1          -2.2850     0.1870    -0.8190 p5         1 PSK       1.250400
     11 OAH         -1.2460     0.5980    -1.8350 o          1 PSK      -0.821500
     12 OAF         -3.5810    -0.4500    -1.2580 o          1 PSK      -0.821500
     13 HAA1         3.9300     2.0710    -1.0260 hc         1 PSK       0.027033
     14 HAA2         4.9490     1.0040    -0.0630 hc         1 PSK       0.027033
     15 HAA3         4.9870     0.9070    -1.8180 hc         1 PSK       0.027033
     16 HAJ1         2.6700     0.0560    -1.8900 hc         1 PSK       0.042700
     17 HAJ2         3.6440    -0.9820    -0.8790 hc         1 PSK       0.042700
     18 HAQ          1.7880     1.2430     0.0600 h1         1 PSK       0.094700
     19 HOAG         3.3840    -0.5280     1.5340 ho         1 PSK       0.418000
     20 HAP          0.7620    -0.8650    -0.9360 hc         1 PSK       0.100700
     21 HAB1         2.3180    -2.5430     0.0580 hc         1 PSK       0.027033
     22 HAB2         1.7100    -2.1630     1.6730 hc         1 PSK       0.027033
     23 HAB3         0.6510    -2.8850     0.4720 hc         1 PSK       0.027033
     24 HAL1        -1.3350    -1.9030    -0.0590 hc         1 PSK       0.069700
     25 HAL2        -2.1560    -1.0520     1.2680 hc         1 PSK       0.069700
     26 HP1         -2.5690     1.3020     0.0280 hp         1 PSK      -0.196400
@<TRIPOS>BOND
     1     1     2 1   
     2     1    13 1   
     3     1    14 1   
     4     1    15 1   
     5     2     3 1   
     6     2    16 1   
     7     2    17 1   
     8     3     4 1   
     9     3     5 1   
    10     3    18 1   
    11     4    19 1   
    12     5     6 1   
    13     5     7 1   
    14     5    20 1   
    15     6    21 1   
    16     6    22 1   
    17     6    23 1   
    18     7     8 2   
    19     7     9 1   
    20     9    10 1   
    21     9    24 1   
    22     9    25 1   
    23    10    11 1   
    24    10    12 1   
    25    10    26 1   
@<TRIPOS>SUBSTRUCTURE
     1 PSK         1 TEMP              0 ****  ****    0 ROOT
