@<TRIPOS>MOLECULE
PSL
    9     8     1     0     0
SMALL
bcc


@<TRIPOS>ATOM
      1 S1          -1.4850    -0.0280     0.0300 s6         1 PSL       1.549800
      2 O1          -2.3410     0.4660     1.1060 o          1 PSL      -0.734533
      3 O2          -1.6980    -1.4310    -0.3090 o          1 PSL      -0.734533
      4 O3          -1.3660     0.8680    -1.1170 o          1 PSL      -0.734533
      5 S2           1.4430     0.0480    -0.0410 s6         1 PSL       1.549800
      6 O4           1.6320     1.4520    -0.3970 o          1 PSL      -0.734533
      7 O5          -0.0010     0.0080     0.7950 os         1 PSL      -0.693400
      8 O6           2.3530    -0.4350     0.9940 o          1 PSL      -0.734533
      9 O7           1.2730    -0.8530    -1.1770 o          1 PSL      -0.734533
@<TRIPOS>BOND
     1     1     2 1   
     2     1     3 1   
     3     1     4 1   
     4     1     7 1   
     5     5     6 1   
     6     5     7 1   
     7     5     8 1   
     8     5     9 1   
@<TRIPOS>SUBSTRUCTURE
     1 PSL         1 TEMP              0 ****  ****    0 ROOT
