@<TRIPOS>MOLECULE
PSL
    9     8     1     0     0
SMALL
No Charge or Current Charge


@<TRIPOS>ATOM
      1 S1          -1.3930    -0.0190     0.0430 s6         1 PSL       1.549800
      2 O1          -2.3500     0.4750     1.0460 o          1 PSL      -0.734533
      3 O2          -1.6020    -1.4370    -0.2920 o          1 PSL      -0.734533
      4 O3          -1.2590     0.8750    -1.1170 o          1 PSL      -0.734533
      5 S2           1.3520     0.0400    -0.0240 s6         1 PSL       1.549800
      6 O4           1.5440     1.4560    -0.3760 o          1 PSL      -0.734533
      7 O5          -0.0000     0.0130     0.8430 os         1 PSL      -0.693400
      8 O6           2.3560    -0.4490     0.9340 o          1 PSL      -0.734533
      9 O7           1.1620    -0.8600    -1.1720 o          1 PSL      -0.734533
@<TRIPOS>BOND
     1     1     2 1   
     2     1     3 1   
     3     1     4 1   
     4     1     7 1   
     5     5     6 1   
     6     5     7 1   
     7     5     8 1   
     8     5     9 1   
@<TRIPOS>SUBSTRUCTURE
     1 PSL         1 TEMP              0 ****  ****    0 ROOT
