@<TRIPOS>MOLECULE
PSM
   65    65     1     0     0
SMALL
bcc


@<TRIPOS>ATOM
      1 C15         -2.1520    -0.5840     0.1040 c          1 PSM       0.641100
      2 O1          -1.9920    -0.6610     1.3120 o          1 PSM      -0.609100
      3 C1          -4.0980    -1.9000    -0.7720 c3         1 PSM       0.161100
      4 O2          -4.3500    -2.5850     0.4340 oh         1 PSM      -0.594800
      5 N4          -4.4680     0.2180     0.3610 n7         1 PSM      -0.827100
      6 C5          -3.5490    -0.4790    -0.5070 c3         1 PSM       0.108500
      7 S1          -4.2000     1.8090     0.7190 s6         1 PSM       1.212900
      8 O4          -4.4050     1.9990     2.1490 o          1 PSM      -0.606800
      9 O3          -2.9300     2.2100     0.1200 o          1 PSM      -0.606800
     10 C9          -5.5130     2.6510    -0.1510 c3         1 PSM      -0.199600
     11 C8          -5.4470     4.1590     0.0500 c3         1 PSM      -0.048400
     12 C7          -6.5860     4.8520    -0.6860 c3         1 PSM      -0.084100
     13 N17         -1.1630    -0.6720    -0.7970 ns         1 PSM      -0.547900
     14 C18          0.2250    -0.8760    -0.4600 c3         1 PSM       0.029700
     15 C28          1.0560     0.1920    -1.1650 c          1 PSM       0.661100
     16 O30          0.8660     0.4480    -2.3450 o          1 PSM      -0.606100
     17 C19          0.7190    -2.2610    -0.8930 c3         1 PSM      -0.078400
     18 C20         -0.0310    -3.3760    -0.1820 c3         1 PSM       0.014700
     19 S2           0.5970    -4.9840    -0.7360 ss         1 PSM      -0.337200
     20 C6          -0.4760    -6.0720     0.2250 c3         1 PSM      -0.007000
     21 N31          2.0010     0.7650    -0.4110 ns         1 PSM      -0.559900
     22 C32          2.9240     1.7660    -0.8970 c3         1 PSM       0.142300
     23 C25          4.3170     1.5520    -0.3700 ca         1 PSM      -0.097300
     24 C16          4.9030     0.2870    -0.3660 ca         1 PSM      -0.127500
     25 C17          6.1960     0.1090     0.0920 ca         1 PSM      -0.096000
     26 C22          6.9480     1.1920     0.5450 ca         1 PSM      -0.138900
     27 C26          8.3370     0.9680     1.0330 ce         1 PSM       0.659800
     28 N1           8.6510    -0.1910     1.4700 n2         1 PSM      -0.826100
     29 N2           9.1480     2.0660     1.0120 nv         1 PSM      -0.966800
     30 C23          6.3620     2.4550     0.5440 ca         1 PSM      -0.096000
     31 C24          5.0600     2.6280     0.0970 ca         1 PSM      -0.127500
     32 H1          -3.3410    -2.4250    -1.3720 h1         1 PSM       0.034700
     33 HO2         -3.5300    -2.7020     0.9260 ho         1 PSM       0.418000
     34 HN4         -4.7720    -0.3120     1.1710 hn         1 PSM       0.458800
     35 H5          -3.4960     0.0330    -1.4710 h1         1 PSM       0.086700
     36 H91         -5.4160     2.3790    -1.2040 h1         1 PSM       0.095700
     37 H92         -6.4500     2.2340     0.2230 h1         1 PSM       0.095700
     38 H81         -5.5040     4.3910     1.1150 hc         1 PSM       0.057700
     39 H82         -4.4900     4.5380    -0.3110 hc         1 PSM       0.057700
     40 H71         -6.5390     4.6630    -1.7590 hc         1 PSM       0.035700
     41 H72         -7.5560     4.5070    -0.3280 hc         1 PSM       0.035700
     42 H73         -6.5390     5.9300    -0.5350 hc         1 PSM       0.035700
     43 H17         -1.3810    -0.5540    -1.7760 hn         1 PSM       0.336500
     44 H18          0.3180    -0.7830     0.6230 h1         1 PSM       0.091700
     45 H191         0.6070    -2.3630    -1.9750 hc         1 PSM       0.069700
     46 H192         1.7860    -2.3350    -0.6700 hc         1 PSM       0.069700
     47 H201         0.0880    -3.2920     0.9000 h1         1 PSM       0.059200
     48 H202        -1.0980    -3.3250    -0.4090 h1         1 PSM       0.059200
     49 H61         -0.3310    -5.9240     1.2940 h1         1 PSM       0.061700
     50 H62         -1.5240    -5.9110    -0.0240 h1         1 PSM       0.061700
     51 H63         -0.2140    -7.0990    -0.0240 h1         1 PSM       0.061700
     52 H31          2.0240     0.5550     0.5750 hn         1 PSM       0.323500
     53 H321         2.9270     1.7190    -1.9860 h1         1 PSM       0.067200
     54 H322         2.5760     2.7670    -0.6270 h1         1 PSM       0.067200
     55 H16          4.3460    -0.5710    -0.7240 ha         1 PSM       0.135500
     56 H2           6.6380    -0.8780     0.0910 ha         1 PSM       0.147000
     57 HN1          9.6290    -0.2250     1.7460 hn         1 PSM       0.372400
     58 HN21         8.9700     2.7820     0.3270 hn         1 PSM       0.406300
     59 HN22        10.1280     1.9210     1.1970 hn         1 PSM       0.406300
     60 H23          6.9020     3.3160     0.9160 ha         1 PSM       0.147000
     61 H24          4.6190     3.6180     0.1170 ha         1 PSM       0.135500
     62 C3          -5.3880    -1.8600    -1.5660 c3         1 PSM      -0.085100
     63 H31A        -6.1710    -1.3170    -1.0370 hc         1 PSM       0.050367
     64 H32         -5.2220    -1.3720    -2.5260 hc         1 PSM       0.050367
     65 H33         -5.7410    -2.8730    -1.7640 hc         1 PSM       0.050367
@<TRIPOS>BOND
     1     1     2 2   
     2     1     6 1   
     3     1    13 1   
     4     3     4 1   
     5     3     6 1   
     6     3    32 1   
     7     3    62 1   
     8     4    33 1   
     9     5     6 1   
    10     5     7 1   
    11     5    34 1   
    12     6    35 1   
    13     7     8 2   
    14     7     9 2   
    15     7    10 1   
    16    10    11 1   
    17    10    36 1   
    18    10    37 1   
    19    11    12 1   
    20    11    38 1   
    21    11    39 1   
    22    12    40 1   
    23    12    41 1   
    24    12    42 1   
    25    13    14 1   
    26    13    43 1   
    27    14    15 1   
    28    14    17 1   
    29    14    44 1   
    30    15    16 2   
    31    15    21 1   
    32    17    18 1   
    33    17    45 1   
    34    17    46 1   
    35    18    19 1   
    36    18    47 1   
    37    18    48 1   
    38    19    20 1   
    39    20    49 1   
    40    20    50 1   
    41    20    51 1   
    42    21    22 1   
    43    21    52 1   
    44    22    23 1   
    45    22    53 1   
    46    22    54 1   
    47    23    24 ar  
    48    23    31 ar  
    49    24    25 ar  
    50    24    55 1   
    51    25    26 ar  
    52    25    56 1   
    53    26    27 1   
    54    26    30 ar  
    55    27    28 2   
    56    27    29 1   
    57    28    57 1   
    58    29    58 1   
    59    29    59 1   
    60    30    31 ar  
    61    30    60 1   
    62    31    61 1   
    63    62    63 1   
    64    62    64 1   
    65    62    65 1   
@<TRIPOS>SUBSTRUCTURE
     1 PSM         1 TEMP              0 ****  ****    0 ROOT
