@<TRIPOS>MOLECULE
PSM
   65    65     1     0     0
SMALL
No Charge or Current Charge


@<TRIPOS>ATOM
      1 C15         -2.5910    -1.1020     0.4380 c          1 PSM       0.574100
      2 O1          -2.2290    -1.7010     1.4440 o          1 PSM      -0.609100
      3 C1          -4.8710    -2.1900     0.1470 c3         1 PSM       0.184300
      4 O2          -4.9080    -2.7270     1.4810 oh         1 PSM      -0.657000
      5 N4          -4.7620     0.1670     1.0420 n7         1 PSM      -0.882300
      6 C5          -4.0990    -0.8320     0.1250 c3         1 PSM       0.108500
      7 S1          -4.1690     1.7130     1.2300 s6         1 PSM       1.182100
      8 O4          -5.1410     2.4060     2.0760 o          1 PSM      -0.536000
      9 O3          -2.7700     1.5950     1.6370 o          1 PSM      -0.536000
     10 C9          -4.2890     2.3810    -0.4380 c3         1 PSM      -0.310400
     11 C8          -3.8680     3.8670    -0.5310 c3         1 PSM      -0.048400
     12 C7          -3.9660     4.4150    -1.9670 c3         1 PSM      -0.084100
     13 N17         -1.6890    -0.6400    -0.5010 ns         1 PSM      -0.480900
     14 C18         -0.2150    -0.7310    -0.3830 c3         1 PSM       0.029700
     15 C28          0.4400     0.5520    -0.9710 c          1 PSM       0.594100
     16 O30         -0.1660     1.3500    -1.6750 o          1 PSM      -0.606100
     17 C19          0.3330    -2.0100    -1.0740 c3         1 PSM      -0.078400
     18 C20         -0.1900    -3.3310    -0.4750 c3         1 PSM       0.062600
     19 S2           0.6040    -4.7740    -1.3140 ss         1 PSM      -0.433000
     20 C6          -0.2140    -6.1600    -0.4010 c3         1 PSM       0.040900
     21 N31          1.7640     0.7400    -0.6430 ns         1 PSM      -0.492900
     22 C32          2.5680     1.8740    -1.0930 c3         1 PSM       0.142300
     23 C25          3.9990     1.7580    -0.5940 ca         1 PSM      -0.097300
     24 C16          4.9580     1.0530    -1.3420 ca         1 PSM      -0.109500
     25 C17          6.2800     0.9390    -0.8780 ca         1 PSM      -0.078000
     26 C22          6.6770     1.5410     0.3390 ca         1 PSM      -0.138900
     27 C26          8.0840     1.3850     0.8390 ce         1 PSM       0.659800
     28 N1           8.8870     0.5040     0.4000 n2         1 PSM      -0.826100
     29 N2           8.5530     2.2930     1.7220 nv         1 PSM      -1.077200
     30 C23          5.6970     2.2270     1.0970 ca         1 PSM      -0.078000
     31 C24          4.3750     2.3380     0.6310 ca         1 PSM      -0.109500
     32 H1          -4.3340    -2.8870    -0.5110 h1         1 PSM       0.034700
     33 HO2         -3.9770    -2.7060     1.8100 ho         1 PSM       0.457000
     34 HN4         -4.7110    -0.1710     2.0030 hn         1 PSM       0.514000
     35 H5          -4.1430    -0.4670    -0.9090 h1         1 PSM       0.086700
     36 H91         -3.6420     1.7650    -1.0700 h1         1 PSM       0.095700
     37 H92         -5.3330     2.2520    -0.7430 h1         1 PSM       0.095700
     38 H81         -4.5040     4.4750     0.1260 hc         1 PSM       0.057700
     39 H82         -2.8360     3.9820    -0.1760 hc         1 PSM       0.057700
     40 H71         -3.3120     3.8500    -2.6420 hc         1 PSM       0.035700
     41 H72         -4.9940     4.3430    -2.3400 hc         1 PSM       0.035700
     42 H73         -3.6620     5.4680    -1.9960 hc         1 PSM       0.035700
     43 H17         -2.0640    -0.1250    -1.2920 hn         1 PSM       0.336500
     44 H18          0.0550    -0.7590     0.6810 h1         1 PSM       0.091700
     45 H191         0.0840    -1.9780    -2.1420 hc         1 PSM       0.069700
     46 H192         1.4270    -2.0130    -1.0070 hc         1 PSM       0.069700
     47 H201         0.0370    -3.3700     0.5990 h1         1 PSM       0.059200
     48 H202        -1.2770    -3.4010    -0.6060 h1         1 PSM       0.059200
     49 H61          0.0150    -6.0880     0.6700 h1         1 PSM       0.061700
     50 H62         -1.3010    -6.1090    -0.5410 h1         1 PSM       0.061700
     51 H63          0.1520    -7.1220    -0.7810 h1         1 PSM       0.061700
     52 H31          2.2040     0.0450    -0.0520 hn         1 PSM       0.323500
     53 H321         2.5590     1.9080    -2.1910 h1         1 PSM       0.067200
     54 H322         2.1160     2.8040    -0.7220 h1         1 PSM       0.067200
     55 H16          4.6790     0.5870    -2.2850 ha         1 PSM       0.117500
     56 H2           7.0010     0.3850    -1.4760 ha         1 PSM       0.129000
     57 HN1          9.6950     0.4720     1.0310 hn         1 PSM       0.372400
     58 HN21         7.9950     3.1350     1.8010 hn         1 PSM       0.461500
     59 HN22         9.5550     2.4420     1.7210 hn         1 PSM       0.461500
     60 H23          5.9470     2.6680     2.0590 ha         1 PSM       0.129000
     61 H24          3.6400     2.8720     1.2290 ha         1 PSM       0.117500
     62 C3          -6.3150    -2.0790    -0.3860 c3         1 PSM      -0.085100
     63 H31A        -6.9200    -1.4150     0.2440 hc         1 PSM       0.050367
     64 H32         -6.3190    -1.6810    -1.4080 hc         1 PSM       0.050367
     65 H33         -6.7940    -3.0650    -0.4040 hc         1 PSM       0.050367
@<TRIPOS>BOND
     1     1     2 2   
     2     1     6 1   
     3     1    13 1   
     4     3     4 1   
     5     3     6 1   
     6     3    32 1   
     7     3    62 1   
     8     4    33 1   
     9     5     6 1   
    10     5     7 1   
    11     5    34 1   
    12     6    35 1   
    13     7     8 2   
    14     7     9 2   
    15     7    10 1   
    16    10    11 1   
    17    10    36 1   
    18    10    37 1   
    19    11    12 1   
    20    11    38 1   
    21    11    39 1   
    22    12    40 1   
    23    12    41 1   
    24    12    42 1   
    25    13    14 1   
    26    13    43 1   
    27    14    15 1   
    28    14    17 1   
    29    14    44 1   
    30    15    16 2   
    31    15    21 1   
    32    17    18 1   
    33    17    45 1   
    34    17    46 1   
    35    18    19 1   
    36    18    47 1   
    37    18    48 1   
    38    19    20 1   
    39    20    49 1   
    40    20    50 1   
    41    20    51 1   
    42    21    22 1   
    43    21    52 1   
    44    22    23 1   
    45    22    53 1   
    46    22    54 1   
    47    23    24 ar  
    48    23    31 ar  
    49    24    25 ar  
    50    24    55 1   
    51    25    26 ar  
    52    25    56 1   
    53    26    27 1   
    54    26    30 ar  
    55    27    28 2   
    56    27    29 1   
    57    28    57 1   
    58    29    58 1   
    59    29    59 1   
    60    30    31 ar  
    61    30    60 1   
    62    31    61 1   
    63    62    63 1   
    64    62    64 1   
    65    62    65 1   
@<TRIPOS>SUBSTRUCTURE
     1 PSM         1 TEMP              0 ****  ****    0 ROOT
