@<TRIPOS>MOLECULE
PSN
   32    33     1     0     0
SMALL
abcg2


@<TRIPOS>ATOM
      1 C1          18.2740    24.7910    19.9760 ca         1 PSN      -0.071000
      2 C2          17.5730    23.6110    19.7600 ca         1 PSN      -0.180000
      3 C3          16.2820    23.6800    19.2670 ca         1 PSN      -0.058000
      4 C4          15.6760    24.9050    18.9810 ca         1 PSN      -0.228600
      5 C5          16.3990    26.0880    19.1920 ca         1 PSN       0.285100
      6 C6          17.6950    26.0190    19.6900 ca         1 PSN      -0.184000
      7 C7          14.2840    24.8550    18.5110 c          1 PSN       0.601500
      8 O8          15.8460    27.2940    18.9570 os         1 PSN      -0.467500
      9 P9          15.9090    27.9790    17.4290 p5         1 PSN       1.400800
     10 O10         17.4710    28.4730    17.3930 os         1 PSN      -0.599400
     11 O11         14.9930    29.1510    17.5150 o          1 PSN      -0.789500
     12 C12         17.9030    29.5320    18.2160 c3         1 PSN       0.265900
     13 C13         19.4050    29.5350    18.3110 ca         1 PSN      -0.068300
     14 C16         20.0490    30.6890    18.7520 ca         1 PSN      -0.101000
     15 C17         21.4290    30.7240    18.8910 ca         1 PSN      -0.124500
     16 C18         22.1900    29.6020    18.5850 ca         1 PSN      -0.132000
     17 C19         21.5560    28.4510    18.1410 ca         1 PSN      -0.124500
     18 C20         20.1730    28.4150    18.0040 ca         1 PSN      -0.101000
     19 O32         15.8190    26.9090    16.3990 o          1 PSN      -0.789500
     20 O25         13.5410    25.7890    18.3270 o          1 PSN      -0.497100
     21 H1          19.2830    24.7590    20.3670 ha         1 PSN       0.095000
     22 H2          18.0260    22.6550    19.9790 ha         1 PSN       0.096000
     23 H3          15.7220    22.7670    19.0990 ha         1 PSN       0.095000
     24 H6          18.2480    26.9340    19.8620 ha         1 PSN       0.123000
     25 H7          13.9270    23.8200    18.3460 h4         1 PSN      -0.048800
     26 H121        17.4910    29.4430    19.2290 h1         1 PSN       0.033200
     27 H122        17.5590    30.4950    17.8240 h1         1 PSN       0.033200
     28 H16         19.4660    31.5720    18.9880 ha         1 PSN       0.123500
     29 H17         21.9100    31.6310    19.2350 ha         1 PSN       0.097500
     30 H18         23.2670    29.6290    18.6870 ha         1 PSN       0.094000
     31 H19         22.1380    27.5720    17.8950 ha         1 PSN       0.097500
     32 H20         19.6990    27.5090    17.6520 ha         1 PSN       0.123500
@<TRIPOS>BOND
     1     1     2 ar  
     2     1     6 ar  
     3     1    21 1   
     4     2     3 ar  
     5     2    22 1   
     6     3     4 ar  
     7     3    23 1   
     8     4     5 ar  
     9     4     7 1   
    10     5     6 ar  
    11     5     8 1   
    12     6    24 1   
    13     7    20 2   
    14     7    25 1   
    15     8     9 1   
    16     9    10 1   
    17     9    11 1   
    18     9    19 1   
    19    10    12 1   
    20    12    13 1   
    21    12    26 1   
    22    12    27 1   
    23    13    14 ar  
    24    13    18 ar  
    25    14    15 ar  
    26    14    28 1   
    27    15    16 ar  
    28    15    29 1   
    29    16    17 ar  
    30    16    30 1   
    31    17    18 ar  
    32    17    31 1   
    33    18    32 1   
@<TRIPOS>SUBSTRUCTURE
     1 PSN         1 TEMP              0 ****  ****    0 ROOT
