@<TRIPOS>MOLECULE
PSN
   32    33     1     0     0
SMALL
No Charge or Current Charge


@<TRIPOS>ATOM
      1 C1          18.3390    24.1940    18.3620 ca         1 PSN      -0.071000
      2 C2          17.7980    23.5870    19.5020 ca         1 PSN      -0.180000
      3 C3          16.6420    24.1110    20.0960 ca         1 PSN      -0.058000
      4 C4          16.0080    25.2510    19.5550 ca         1 PSN      -0.228600
      5 C5          16.5470    25.8640    18.3960 ca         1 PSN       0.285100
      6 C6          17.7180    25.3260    17.8130 ca         1 PSN      -0.184000
      7 C7          14.7720    25.7560    20.2550 c          1 PSN       0.601500
      8 O8          15.9400    26.9840    17.8860 os         1 PSN      -0.467500
      9 P9          16.2480    27.7760    16.5150 p5         1 PSN       1.400800
     10 O10         17.6850    28.3840    16.9100 os         1 PSN      -0.599400
     11 O11         15.2600    28.8660    16.2600 o          1 PSN      -0.789500
     12 C12         17.7350    29.4610    17.8470 c3         1 PSN       0.265900
     13 C13         19.1390    29.5200    18.4370 ca         1 PSN      -0.068300
     14 C16         20.0190    30.5680    18.0970 ca         1 PSN      -0.101000
     15 C17         21.3110    30.6150    18.6490 ca         1 PSN      -0.124500
     16 C18         21.7320    29.6170    19.5440 ca         1 PSN      -0.132000
     17 C19         20.8610    28.5690    19.8850 ca         1 PSN      -0.124500
     18 C20         19.5680    28.5210    19.3340 ca         1 PSN      -0.101000
     19 O32         16.3650    26.8520    15.3470 o          1 PSN      -0.789500
     20 O25         14.0950    26.7170    19.9080 o          1 PSN      -0.497100
     21 H1          19.2400    23.7900    17.9050 ha         1 PSN       0.095000
     22 H2          18.2780    22.7090    19.9290 ha         1 PSN       0.096000
     23 H3          16.2370    23.6290    20.9840 ha         1 PSN       0.095000
     24 H6          18.1710    25.7790    16.9380 ha         1 PSN       0.123000
     25 H7          14.4800    25.1790    21.1600 h4         1 PSN      -0.048800
     26 H121        17.0120    29.3160    18.6620 h1         1 PSN       0.033200
     27 H122        17.4980    30.4130    17.3520 h1         1 PSN       0.033200
     28 H16         19.7020    31.3440    17.4040 ha         1 PSN       0.123500
     29 H17         21.9860    31.4260    18.3830 ha         1 PSN       0.097500
     30 H18         22.7320    29.6540    19.9700 ha         1 PSN       0.094000
     31 H19         21.1860    27.7950    20.5760 ha         1 PSN       0.097500
     32 H20         18.8990    27.7050    19.6000 ha         1 PSN       0.123500
@<TRIPOS>BOND
     1     1     2 ar  
     2     1     6 ar  
     3     1    21 1   
     4     2     3 ar  
     5     2    22 1   
     6     3     4 ar  
     7     3    23 1   
     8     4     5 ar  
     9     4     7 1   
    10     5     6 ar  
    11     5     8 1   
    12     6    24 1   
    13     7    20 2   
    14     7    25 1   
    15     8     9 1   
    16     9    10 1   
    17     9    11 1   
    18     9    19 1   
    19    10    12 1   
    20    12    13 1   
    21    12    26 1   
    22    12    27 1   
    23    13    14 ar  
    24    13    18 ar  
    25    14    15 ar  
    26    14    28 1   
    27    15    16 ar  
    28    15    29 1   
    29    16    17 ar  
    30    16    30 1   
    31    17    18 ar  
    32    17    31 1   
    33    18    32 1   
@<TRIPOS>SUBSTRUCTURE
     1 PSN         1 TEMP              0 ****  ****    0 ROOT
