@<TRIPOS>MOLECULE
PSO
   33    35     1     0     0
SMALL
No Charge or Current Charge


@<TRIPOS>ATOM
      1 O1           1.0790    -0.1890    -2.6710 os         1 PSO      -0.338200
      2 C2           0.2690    -0.1610    -3.7710 c          1 PSO       0.676300
      3 C3          -1.1650     0.0100    -3.5150 cc         1 PSO      -0.338200
      4 C4          -1.6920     0.1360    -2.2510 cd         1 PSO       0.046600
      5 C5          -1.2120     0.2190     0.2210 ca         1 PSO      -0.001000
      6 C6          -0.2630     0.1720     1.2480 ca         1 PSO      -0.117800
      7 C7           1.0740     0.0090     0.9780 ca         1 PSO       0.102100
      8 C8           1.5750    -0.1170    -0.3230 ca         1 PSO      -0.091300
      9 C9           0.6310    -0.0700    -1.3770 ca         1 PSO       0.178100
     10 C10         -0.7570     0.0960    -1.1180 ca         1 PSO      -0.164800
     11 C11         -0.4290     0.2680     2.6900 cc         1 PSO      -0.135400
     12 C14          0.8660     0.1470     3.1790 cd         1 PSO       0.055900
     13 O6           1.7620    -0.0060     2.1510 os         1 PSO      -0.173200
     14 O11          0.7210    -0.2720    -4.9010 o          1 PSO      -0.489000
     15 C12         -3.1800     0.3100    -2.0580 c3         1 PSO      -0.066900
     16 C13         -1.7090     0.4620     3.4570 c3         1 PSO       0.235800
     17 O14         -2.3650    -0.7930     3.6560 oh         1 PSO      -0.653000
     18 C15          1.3760     0.1660     4.5940 c3         1 PSO      -0.033900
     19 C16          3.0650    -0.2970    -0.5930 c3         1 PSO      -0.029800
     20 H3          -1.7850     0.0290    -4.4030 ha         1 PSO       0.211000
     21 H5          -2.2640     0.3440     0.4610 ha         1 PSO       0.130000
     22 H121        -3.7170     0.3170    -3.0140 hc         1 PSO       0.054367
     23 H122        -3.5950    -0.5060    -1.4560 hc         1 PSO       0.054367
     24 H123        -3.4030     1.2550    -1.5510 hc         1 PSO       0.054367
     25 H131        -1.4820     0.9310     4.4230 h1         1 PSO       0.026700
     26 H132        -2.3600     1.1490     2.8990 h1         1 PSO       0.026700
     27 H14         -3.1870    -0.6030     4.1590 ho         1 PSO       0.441000
     28 H151         1.2870     1.1690     5.0270 hc         1 PSO       0.060033
     29 H152         0.8070    -0.5260     5.2240 hc         1 PSO       0.060033
     30 H153         2.4310    -0.1280     4.6410 hc         1 PSO       0.060033
     31 H161         3.2570    -1.2400    -1.1170 hc         1 PSO       0.052700
     32 H162         3.4510     0.5180    -1.2180 hc         1 PSO       0.052700
     33 H163         3.6530    -0.3090     0.3320 hc         1 PSO       0.052700
@<TRIPOS>BOND
     1     1     2 1   
     2     1     9 1   
     3     2     3 1   
     4     2    14 2   
     5     3     4 2   
     6     3    20 1   
     7     4    10 1   
     8     4    15 1   
     9     5     6 ar  
    10     5    10 ar  
    11     5    21 1   
    12     6     7 ar  
    13     6    11 1   
    14     7     8 ar  
    15     7    13 1   
    16     8     9 ar  
    17     8    19 1   
    18     9    10 ar  
    19    11    12 2   
    20    11    16 1   
    21    12    13 1   
    22    12    18 1   
    23    15    22 1   
    24    15    23 1   
    25    15    24 1   
    26    16    17 1   
    27    16    25 1   
    28    16    26 1   
    29    17    27 1   
    30    18    28 1   
    31    18    29 1   
    32    18    30 1   
    33    19    31 1   
    34    19    32 1   
    35    19    33 1   
@<TRIPOS>SUBSTRUCTURE
     1 PSO         1 TEMP              0 ****  ****    0 ROOT
