@<TRIPOS>MOLECULE
PSO
   33    35     1     0     0
SMALL
abcg2


@<TRIPOS>ATOM
      1 O1           1.0620    -0.1470    -2.5710 os         1 PSO      -0.338200
      2 C2           0.2720    -0.1460    -3.6720 c          1 PSO       0.676300
      3 C3          -1.1480    -0.0240    -3.4510 cc         1 PSO      -0.338200
      4 C4          -1.6770     0.0860    -2.2150 cd         1 PSO       0.046600
      5 C5          -1.2620     0.1820     0.2450 ca         1 PSO      -0.001000
      6 C6          -0.3400     0.1680     1.2760 ca         1 PSO      -0.117800
      7 C7           1.0210     0.0440     0.9770 ca         1 PSO       0.102100
      8 C8           1.5470    -0.0620    -0.2970 ca         1 PSO      -0.091300
      9 C9           0.5860    -0.0400    -1.3050 ca         1 PSO       0.178100
     10 C10         -0.7950     0.0820    -1.0670 ca         1 PSO      -0.164800
     11 C11         -0.4160     0.2520     2.7120 cc         1 PSO      -0.135400
     12 C14          0.8570     0.1640     3.1570 cd         1 PSO       0.055900
     13 O6           1.7390     0.0440     2.1170 os         1 PSO      -0.173200
     14 O11          0.8190    -0.2470    -4.7440 o          1 PSO      -0.489000
     15 C12         -3.1510     0.2100    -2.0170 c3         1 PSO      -0.066900
     16 C13         -1.6640     0.4160     3.5030 c3         1 PSO       0.235800
     17 O14         -2.5300    -0.6590     3.2000 oh         1 PSO      -0.653000
     18 C15          1.4520     0.1780     4.5110 c3         1 PSO      -0.033900
     19 C16          3.0100    -0.1990    -0.5840 c3         1 PSO      -0.029800
     20 H3          -1.7770    -0.0240    -4.3310 ha         1 PSO       0.211000
     21 H5          -2.3210     0.2640     0.4480 ha         1 PSO       0.130000
     22 H121        -3.6780     0.1890    -2.9680 hc         1 PSO       0.054367
     23 H122        -3.5310    -0.6040    -1.3970 hc         1 PSO       0.054367
     24 H123        -3.3990     1.1440    -1.5100 hc         1 PSO       0.054367
     25 H131        -1.4280     0.4590     4.5730 h1         1 PSO       0.026700
     26 H132        -2.1260     1.3770     3.2450 h1         1 PSO       0.026700
     27 H14         -3.3990    -0.4450     3.5520 ho         1 PSO       0.441000
     28 H151         2.1200     1.0310     4.6430 hc         1 PSO       0.060033
     29 H152         0.6740     0.2400     5.2680 hc         1 PSO       0.060033
     30 H153         2.0320    -0.7280     4.6940 hc         1 PSO       0.060033
     31 H161         3.2410    -1.1850    -0.9890 hc         1 PSO       0.052700
     32 H162         3.3440     0.5380    -1.3130 hc         1 PSO       0.052700
     33 H163         3.6040    -0.0660     0.3170 hc         1 PSO       0.052700
@<TRIPOS>BOND
     1     1     2 1   
     2     1     9 1   
     3     2     3 1   
     4     2    14 2   
     5     3     4 2   
     6     3    20 1   
     7     4    10 1   
     8     4    15 1   
     9     5     6 ar  
    10     5    10 ar  
    11     5    21 1   
    12     6     7 ar  
    13     6    11 1   
    14     7     8 ar  
    15     7    13 1   
    16     8     9 ar  
    17     8    19 1   
    18     9    10 ar  
    19    11    12 2   
    20    11    16 1   
    21    12    13 1   
    22    12    18 1   
    23    15    22 1   
    24    15    23 1   
    25    15    24 1   
    26    16    17 1   
    27    16    25 1   
    28    16    26 1   
    29    17    27 1   
    30    18    28 1   
    31    18    29 1   
    32    18    30 1   
    33    19    31 1   
    34    19    32 1   
    35    19    33 1   
@<TRIPOS>SUBSTRUCTURE
     1 PSO         1 TEMP              0 ****  ****    0 ROOT
