@<TRIPOS>MOLECULE
PSP
   39    40     1     0     0
SMALL
abcg2


@<TRIPOS>ATOM
      1 C1           1.2410     2.0900    -0.1030 c3         1 PSP       0.036100
      2 C5A          4.6760    -0.3570    -0.2980 ca         1 PSP       0.036600
      3 O10          7.5720    -2.2660     0.4120 oh         1 PSP      -0.446000
      4 N9           6.5130    -1.4800     0.6380 n2         1 PSP      -0.246200
      5 C8           5.8510    -1.2080    -0.4130 ce         1 PSP       0.341800
      6 C4           4.2310     0.1620     0.9210 ca         1 PSP      -0.107750
      7 C3           3.1220     0.9620     0.9520 ca         1 PSP      -0.061500
      8 N2           2.4520     1.2630    -0.1740 na         1 PSP       0.038300
      9 C7           2.8500     0.7750    -1.3560 ca         1 PSP      -0.010800
     10 C6           3.9550    -0.0330    -1.4470 ca         1 PSP      -0.107750
     11 C2           0.0010     1.2140    -0.0040 c3         1 PSP      -0.127400
     12 C5          -1.2350     2.0960     0.0960 c3         1 PSP       0.036100
     13 N8          -2.4490     1.2740     0.1770 na         1 PSP       0.038300
     14 C9          -3.1360     0.9830    -0.9400 ca         1 PSP      -0.061500
     15 C10         -4.2480     0.1860    -0.8980 ca         1 PSP      -0.107750
     16 C11         -4.6760    -0.3400     0.3240 ca         1 PSP       0.036600
     17 C12         -3.9370    -0.0250     1.4640 ca         1 PSP      -0.107750
     18 C13         -2.8310     0.7790     1.3620 ca         1 PSP      -0.010800
     19 C14         -5.8510    -1.1890     0.4500 ce         1 PSP       0.341800
     20 N15         -6.5290    -1.4510    -0.5930 n2         1 PSP      -0.246200
     21 O16         -7.5860    -2.2370    -0.3580 oh         1 PSP      -0.446000
     22 H1A          1.3370     2.7440     0.7620 h1         1 PSP       0.103950
     23 H2A          1.2170     2.7180    -0.9930 h1         1 PSP       0.103950
     24 H10A         7.9830    -2.3890     1.2760 ho         1 PSP       0.508000
     25 H8           6.1240    -1.5800    -1.3980 h4         1 PSP       0.051800
     26 H4A          4.7440    -0.0510     1.8470 ha         1 PSP       0.191000
     27 H3A          2.7450     1.3870     1.8700 h4         1 PSP       0.180250
     28 H7A          2.2660     1.0540    -2.2210 h4         1 PSP       0.180250
     29 H6A          4.2500    -0.4010    -2.4190 ha         1 PSP       0.191000
     30 H3          -0.0730     0.5700    -0.8840 hc         1 PSP       0.080200
     31 H4           0.0720     0.5690     0.8740 hc         1 PSP       0.080200
     32 H6          -1.2040     2.7280     0.9820 h1         1 PSP       0.103950
     33 H7          -1.3320     2.7450    -0.7710 h1         1 PSP       0.103950
     34 H9          -2.7690     1.4110    -1.8610 h4         1 PSP       0.180250
     35 H10         -4.7750    -0.0190    -1.8180 ha         1 PSP       0.191000
     36 H12         -4.2180    -0.4000     2.4380 ha         1 PSP       0.191000
     37 H13         -2.2340     1.0500     2.2200 h4         1 PSP       0.180250
     38 H14         -6.1090    -1.5690     1.4360 h4         1 PSP       0.051800
     39 H16         -8.0110    -2.3520    -1.2170 ho         1 PSP       0.508000
@<TRIPOS>BOND
     1     1     8 1   
     2     1    11 1   
     3     1    22 1   
     4     1    23 1   
     5     2     5 1   
     6     2     6 ar  
     7     2    10 ar  
     8     3     4 1   
     9     3    24 1   
    10     4     5 2   
    11     5    25 1   
    12     6     7 ar  
    13     6    26 1   
    14     7     8 1   
    15     7    27 1   
    16     8     9 2   
    17     9    10 ar  
    18     9    28 1   
    19    10    29 1   
    20    11    12 1   
    21    11    30 1   
    22    11    31 1   
    23    12    13 1   
    24    12    32 1   
    25    12    33 1   
    26    13    14 1   
    27    13    18 2   
    28    14    15 ar  
    29    14    34 1   
    30    15    16 ar  
    31    15    35 1   
    32    16    17 ar  
    33    16    19 1   
    34    17    18 ar  
    35    17    36 1   
    36    18    37 1   
    37    19    20 2   
    38    19    38 1   
    39    20    21 1   
    40    21    39 1   
@<TRIPOS>SUBSTRUCTURE
     1 PSP         1 TEMP              0 ****  ****    0 ROOT
