@<TRIPOS>MOLECULE
PSP
   39    40     1     0     0
SMALL
No Charge or Current Charge


@<TRIPOS>ATOM
      1 C1           1.2910     2.1200    -0.0860 c3         1 PSP       0.036100
      2 C5A          4.8360    -0.3300    -0.3200 ca         1 PSP       0.036600
      3 O10          7.8350    -2.3950     0.3260 oh         1 PSP      -0.446000
      4 N9           6.7110    -1.5990     0.6170 n2         1 PSP      -0.246200
      5 C8           6.0590    -1.1870    -0.4300 ce         1 PSP       0.341800
      6 C4           4.3220     0.0800     0.9320 ca         1 PSP      -0.107750
      7 C3           3.1690     0.8860     0.9960 ca         1 PSP      -0.061500
      8 N2           2.5140     1.2980    -0.1670 na         1 PSP       0.038300
      9 C7           3.0160     0.8920    -1.4060 ca         1 PSP      -0.010800
     10 C6           4.1670     0.0860    -1.4910 ca         1 PSP      -0.107750
     11 C2           0.0020     1.2700     0.0060 c3         1 PSP      -0.127400
     12 C5          -1.2840     2.1260     0.0920 c3         1 PSP       0.036100
     13 N8          -2.5100     1.3090     0.1780 na         1 PSP       0.038300
     14 C9          -3.1660     0.8930    -0.9830 ca         1 PSP      -0.061500
     15 C10         -4.3220     0.0920    -0.9140 ca         1 PSP      -0.107750
     16 C11         -4.8390    -0.3090     0.3400 ca         1 PSP       0.036600
     17 C12         -4.1680     0.1110     1.5090 ca         1 PSP      -0.107750
     18 C13         -3.0130     0.9120     1.4190 ca         1 PSP      -0.010800
     19 C14         -6.0640    -1.1610     0.4550 ce         1 PSP       0.341800
     20 N15         -6.7180    -1.5770    -0.5890 n2         1 PSP      -0.246200
     21 O16         -7.8450    -2.3670    -0.2940 oh         1 PSP      -0.446000
     22 H1A          1.3640     2.7750     0.7920 h1         1 PSP       0.103950
     23 H2A          1.2430     2.7700    -0.9700 h1         1 PSP       0.103950
     24 H10A         8.2190    -2.6280     1.2070 ho         1 PSP       0.508000
     25 H8           6.3790    -1.4510    -1.4400 h4         1 PSP       0.051800
     26 H4A          4.8090    -0.2230     1.8570 ha         1 PSP       0.191000
     27 H3A          2.7570     1.2080     1.9540 h4         1 PSP       0.180250
     28 H7A          2.4860     1.2170    -2.3020 h4         1 PSP       0.180250
     29 H6A          4.5370    -0.2160    -2.4700 ha         1 PSP       0.191000
     30 H3          -0.0600     0.6130    -0.8720 hc         1 PSP       0.080200
     31 H4           0.0620     0.6170     0.8870 hc         1 PSP       0.080200
     32 H6          -1.2330     2.7810     0.9720 h1         1 PSP       0.103950
     33 H7          -1.3550     2.7760    -0.7900 h1         1 PSP       0.103950
     34 H9          -2.7530     1.2070    -1.9430 h4         1 PSP       0.180250
     35 H10         -4.8110    -0.2150    -1.8370 ha         1 PSP       0.191000
     36 H12         -4.5380    -0.1840     2.4890 ha         1 PSP       0.191000
     37 H13         -2.4820     1.2400     2.3140 h4         1 PSP       0.180250
     38 H14         -6.3850    -1.4180     1.4670 h4         1 PSP       0.051800
     39 H16         -8.2310    -2.6030    -1.1730 ho         1 PSP       0.508000
@<TRIPOS>BOND
     1     1     8 1   
     2     1    11 1   
     3     1    22 1   
     4     1    23 1   
     5     2     5 1   
     6     2     6 ar  
     7     2    10 ar  
     8     3     4 1   
     9     3    24 1   
    10     4     5 2   
    11     5    25 1   
    12     6     7 ar  
    13     6    26 1   
    14     7     8 1   
    15     7    27 1   
    16     8     9 2   
    17     9    10 ar  
    18     9    28 1   
    19    10    29 1   
    20    11    12 1   
    21    11    30 1   
    22    11    31 1   
    23    12    13 1   
    24    12    32 1   
    25    12    33 1   
    26    13    14 1   
    27    13    18 2   
    28    14    15 ar  
    29    14    34 1   
    30    15    16 ar  
    31    15    35 1   
    32    16    17 ar  
    33    16    19 1   
    34    17    18 ar  
    35    17    36 1   
    36    18    37 1   
    37    19    20 2   
    38    19    38 1   
    39    20    21 1   
    40    21    39 1   
@<TRIPOS>SUBSTRUCTURE
     1 PSP         1 TEMP              0 ****  ****    0 ROOT
