@<TRIPOS>MOLECULE
PSS
   45    46     1     0     0
SMALL
abcg2


@<TRIPOS>ATOM
      1 C            3.2020     2.0380    -0.1780 c          1 PSS       0.727000
      2 N            1.4070     0.5590     0.6940 n          1 PSS      -0.365800
      3 O            2.5280     2.9850     0.2660 o          1 PSS      -0.722000
      4 C1          -0.3160     0.9490     2.4010 c6         1 PSS       0.134800
      5 N1          -1.2520     0.2680     1.5330 n7         1 PSS      -0.851400
      6 C2           1.1150     0.5440     2.1180 c6         1 PSS       0.078000
      7 C3          -0.9990     0.6150     0.1510 c6         1 PSS       0.083500
      8 C4           0.4750     0.7120    -0.2540 c          1 PSS       0.539000
      9 C5          -1.7280    -0.3580    -0.7830 c3         1 PSS      -0.031100
     10 C6          -3.2110    -0.3740    -0.5400 ca         1 PSS      -0.049300
     11 C7          -3.8120    -1.3930     0.1930 ca         1 PSS      -0.103000
     12 C8          -5.1810    -1.3920     0.4270 ca         1 PSS      -0.115000
     13 C9          -5.9720    -0.3640    -0.0680 ca         1 PSS      -0.125000
     14 C10         -5.3840     0.6580    -0.8020 ca         1 PSS      -0.115000
     15 C11         -4.0160     0.6500    -1.0360 ca         1 PSS      -0.103000
     16 C12          2.8140     0.6200     0.3210 c3         1 PSS      -0.026300
     17 C13          3.2660    -0.5240    -0.5840 c3         1 PSS      -0.065400
     18 C14          2.8250    -1.9000    -0.0990 c3         1 PSS      -0.074400
     19 C15          3.4720    -3.0340    -0.8850 c3         1 PSS      -0.078400
     20 C16          3.0100    -4.4110    -0.4270 c3         1 PSS      -0.086100
     21 OXT          4.1970     2.1100    -0.9240 o          1 PSS      -0.722000
     22 H1          -0.4340     2.0270     2.2560 h1         1 PSS       0.058200
     23 H1A         -0.5510     0.7390     3.4460 h1         1 PSS       0.058200
     24 HN1         -1.1610    -0.7340     1.6600 hn         1 PSS       0.398000
     25 H2           1.3150    -0.4540     2.5230 h1         1 PSS       0.037700
     26 H2A          1.7990     1.2340     2.6170 h1         1 PSS       0.037700
     27 H3          -1.4090     1.6180    -0.0270 h1         1 PSS       0.085700
     28 H5          -1.5220    -0.0730    -1.8150 hc         1 PSS       0.061200
     29 H5A         -1.3200    -1.3650    -0.6440 hc         1 PSS       0.061200
     30 H7          -3.2050    -2.2020     0.5820 ha         1 PSS       0.111500
     31 H8          -5.6300    -2.1960     0.9960 ha         1 PSS       0.101500
     32 H9          -7.0400    -0.3610     0.1140 ha         1 PSS       0.099000
     33 H10         -5.9930     1.4610    -1.1990 ha         1 PSS       0.101500
     34 H11         -3.5670     1.4500    -1.6140 ha         1 PSS       0.111500
     35 H12          3.3560     0.4880     1.2650 h1         1 PSS       0.019700
     36 H13          2.9290    -0.3700    -1.6090 hc         1 PSS       0.058700
     37 H13A         4.3580    -0.4930    -0.6130 hc         1 PSS       0.058700
     38 H14          3.0710    -2.0170     0.9640 hc         1 PSS       0.022700
     39 H14A         1.7370    -1.9940    -0.1690 hc         1 PSS       0.022700
     40 H15          3.2500    -2.9100    -1.9500 hc         1 PSS       0.035200
     41 H15A         4.5600    -2.9620    -0.7940 hc         1 PSS       0.035200
     42 H16          3.2390    -4.5710     0.6290 hc         1 PSS       0.020367
     43 H16A         1.9320    -4.5250    -0.5490 hc         1 PSS       0.020367
     44 H16B         3.4930    -5.2070    -0.9940 hc         1 PSS       0.020367
     45 O1           0.7590     0.9140    -1.4330 o          1 PSS      -0.565000
@<TRIPOS>BOND
     1     1     3 1   
     2     1    16 1   
     3     1    21 1   
     4     2     6 1   
     5     2     8 1   
     6     2    16 1   
     7     4     5 1   
     8     4     6 1   
     9     4    22 1   
    10     4    23 1   
    11     5     7 1   
    12     5    24 1   
    13     6    25 1   
    14     6    26 1   
    15     7     8 1   
    16     7     9 1   
    17     7    27 1   
    18     8    45 2   
    19     9    10 1   
    20     9    28 1   
    21     9    29 1   
    22    10    11 ar  
    23    10    15 ar  
    24    11    12 ar  
    25    11    30 1   
    26    12    13 ar  
    27    12    31 1   
    28    13    14 ar  
    29    13    32 1   
    30    14    15 ar  
    31    14    33 1   
    32    15    34 1   
    33    16    17 1   
    34    16    35 1   
    35    17    18 1   
    36    17    36 1   
    37    17    37 1   
    38    18    19 1   
    39    18    38 1   
    40    18    39 1   
    41    19    20 1   
    42    19    40 1   
    43    19    41 1   
    44    20    42 1   
    45    20    43 1   
    46    20    44 1   
@<TRIPOS>SUBSTRUCTURE
     1 PSS         1 TEMP              0 ****  ****    0 ROOT
