@<TRIPOS>MOLECULE
PSS
   45    46     1     0     0
SMALL
No Charge or Current Charge


@<TRIPOS>ATOM
      1 C            3.0340     1.9860    -0.6960 c          1 PSS       0.727000
      2 N            1.3390     0.4250     0.4670 n          1 PSS      -0.365800
      3 O            2.6590     3.0300    -0.1740 o          1 PSS      -0.722000
      4 C1          -0.4290     0.2660     2.3270 c6         1 PSS       0.134800
      5 N1          -1.3500    -0.2680     1.2990 n7         1 PSS      -0.851400
      6 C2           1.0570     0.1220     1.9030 c6         1 PSS       0.078000
      7 C3          -1.1910     0.4920     0.0170 c6         1 PSS       0.083500
      8 C4           0.2990     0.5580    -0.4950 c          1 PSS       0.539000
      9 C5          -2.1510    -0.0730    -1.0770 c3         1 PSS      -0.031100
     10 C6          -3.6300    -0.0180    -0.7010 ca         1 PSS      -0.049300
     11 C7          -4.3540    -1.2040    -0.4610 ca         1 PSS      -0.103000
     12 C8          -5.7180    -1.1480    -0.1260 ca         1 PSS      -0.115000
     13 C9          -6.3690     0.0940    -0.0300 ca         1 PSS      -0.125000
     14 C10         -5.6550     1.2790    -0.2710 ca         1 PSS      -0.115000
     15 C11         -4.2910     1.2230    -0.6060 ca         1 PSS      -0.103000
     16 C12          2.7740     0.6460     0.0830 c3         1 PSS      -0.026300
     17 C13          3.4210    -0.6050    -0.5850 c3         1 PSS      -0.065400
     18 C14          3.3300    -1.9060     0.2470 c3         1 PSS      -0.074400
     19 C15          4.0830    -3.0890    -0.3990 c3         1 PSS      -0.078400
     20 C16          3.9850    -4.3880     0.4250 c3         1 PSS      -0.086100
     21 OXT          3.6500     1.9630    -1.7550 o          1 PSS      -0.722000
     22 H1          -0.6530     1.3300     2.4960 h1         1 PSS       0.058200
     23 H1A         -0.5870    -0.2560     3.2830 h1         1 PSS       0.058200
     24 HN1         -1.1160    -1.2550     1.1330 hn         1 PSS       0.398000
     25 H2           1.3710    -0.9110     2.1010 h1         1 PSS       0.037700
     26 H2A          1.6710     0.7710     2.5430 h1         1 PSS       0.037700
     27 H3          -1.4700     1.5410     0.1960 h1         1 PSS       0.085700
     28 H5          -2.0190     0.4930    -2.0070 hc         1 PSS       0.061200
     29 H5A         -1.8600    -1.1030    -1.3200 hc         1 PSS       0.061200
     30 H7          -3.8590    -2.1700    -0.5310 ha         1 PSS       0.111500
     31 H8          -6.2700    -2.0670     0.0600 ha         1 PSS       0.101500
     32 H9          -7.4240     0.1370     0.2290 ha         1 PSS       0.099000
     33 H10         -6.1580     2.2410    -0.1990 ha         1 PSS       0.101500
     34 H11         -3.7460     2.1460    -0.7940 ha         1 PSS       0.111500
     35 H12          3.3240     0.7820     1.0230 h1         1 PSS       0.019700
     36 H13          2.9560    -0.7730    -1.5640 hc         1 PSS       0.058700
     37 H13A         4.4800    -0.3900    -0.7730 hc         1 PSS       0.058700
     38 H14          3.7380    -1.7230     1.2490 hc         1 PSS       0.022700
     39 H14A         2.2770    -2.1860     0.3690 hc         1 PSS       0.022700
     40 H15          3.6790    -3.2730    -1.4020 hc         1 PSS       0.035200
     41 H15A         5.1400    -2.8250    -0.5230 hc         1 PSS       0.035200
     42 H16          4.4140    -4.2460     1.4250 hc         1 PSS       0.020367
     43 H16A         2.9400    -4.6990     0.5370 hc         1 PSS       0.020367
     44 H16B         4.5330    -5.1970    -0.0710 hc         1 PSS       0.020367
     45 O1           0.5530     0.7020    -1.6870 o          1 PSS      -0.565000
@<TRIPOS>BOND
     1     1     3 1   
     2     1    16 1   
     3     1    21 1   
     4     2     6 1   
     5     2     8 1   
     6     2    16 1   
     7     4     5 1   
     8     4     6 1   
     9     4    22 1   
    10     4    23 1   
    11     5     7 1   
    12     5    24 1   
    13     6    25 1   
    14     6    26 1   
    15     7     8 1   
    16     7     9 1   
    17     7    27 1   
    18     8    45 2   
    19     9    10 1   
    20     9    28 1   
    21     9    29 1   
    22    10    11 ar  
    23    10    15 ar  
    24    11    12 ar  
    25    11    30 1   
    26    12    13 ar  
    27    12    31 1   
    28    13    14 ar  
    29    13    32 1   
    30    14    15 ar  
    31    14    33 1   
    32    15    34 1   
    33    16    17 1   
    34    16    35 1   
    35    17    18 1   
    36    17    36 1   
    37    17    37 1   
    38    18    19 1   
    39    18    38 1   
    40    18    39 1   
    41    19    20 1   
    42    19    40 1   
    43    19    41 1   
    44    20    42 1   
    45    20    43 1   
    46    20    44 1   
@<TRIPOS>SUBSTRUCTURE
     1 PSS         1 TEMP              0 ****  ****    0 ROOT
