@<TRIPOS>MOLECULE
PSV
   24    24     1     0     0
SMALL
abcg2


@<TRIPOS>ATOM
      1 C1         -41.9480     4.4080    13.4740 c3         1 PSV       0.177600
      2 O1         -40.6370     4.8340    13.7380 oh         1 PSV      -0.681000
      3 C2         -41.9930     3.7370    12.1070 c5         1 PSV       0.399000
      4 O2         -41.1610     2.6350    12.1490 oh         1 PSV      -0.682000
      5 C3         -43.4460     3.3820    11.7200 c5         1 PSV       0.115300
      6 O3         -43.4130     2.1880    10.9820 oh         1 PSV      -0.725000
      7 C4         -43.8570     4.5680    10.8550 c5         1 PSV       0.093300
      8 O4         -44.9150     4.2070    10.0140 oh         1 PSV      -0.719000
      9 C5         -42.5440     4.9010    10.1430 c5         1 PSV       0.134300
     10 O5         -41.5470     4.6570    11.1180 os         1 PSV      -0.441000
     11 C6         -42.4770     6.3320     9.6710 c3         1 PSV       0.169600
     12 O6         -41.2830     6.5330     8.9550 oh         1 PSV      -0.696000
     13 H11        -42.6590     5.2450    13.4760 h1         1 PSV       0.021200
     14 H12        -42.3050     3.6870    14.2200 h1         1 PSV       0.021200
     15 HO1        -40.6290     5.2540    14.6020 ho         1 PSV       0.498000
     16 HO2        -41.4040     2.0390    11.4270 ho         1 PSV       0.531000
     17 H3         -44.0850     3.2810    12.6070 h1         1 PSV       0.063700
     18 HO3        -44.2130     2.1280    10.4480 ho         1 PSV       0.539000
     19 H4         -44.1330     5.4040    11.5130 h1         1 PSV       0.047700
     20 HO4        -45.2730     4.9940     9.5920 ho         1 PSV       0.521000
     21 H5         -42.4220     4.2300     9.2810 h1         1 PSV       0.074700
     22 H61        -43.3600     6.5240     9.0450 h1         1 PSV       0.017200
     23 H62        -42.5530     6.9960    10.5440 h1         1 PSV       0.017200
     24 HO6        -41.2580     7.4490     8.6630 ho         1 PSV       0.503000
@<TRIPOS>BOND
     1     1     2 1   
     2     1     3 1   
     3     1    13 1   
     4     1    14 1   
     5     2    15 1   
     6     3     4 1   
     7     3     5 1   
     8     3    10 1   
     9     4    16 1   
    10     5     6 1   
    11     5     7 1   
    12     5    17 1   
    13     6    18 1   
    14     7     8 1   
    15     7     9 1   
    16     7    19 1   
    17     8    20 1   
    18     9    10 1   
    19     9    11 1   
    20     9    21 1   
    21    11    12 1   
    22    11    22 1   
    23    11    23 1   
    24    12    24 1   
@<TRIPOS>SUBSTRUCTURE
     1 PSV         1 TEMP              0 ****  ****    0 ROOT
