@<TRIPOS>MOLECULE
PSV
   24    24     1     0     0
SMALL
No Charge or Current Charge


@<TRIPOS>ATOM
      1 C1         -41.8550     4.3100    13.6890 c3         1 PSV       0.177600
      2 O1         -40.5140     4.6760    14.0980 oh         1 PSV      -0.681000
      3 C2         -41.9630     3.8680    12.1790 c5         1 PSV       0.399000
      4 O2         -41.1050     2.7730    11.9030 oh         1 PSV      -0.682000
      5 C3         -43.4170     3.4090    11.7580 c5         1 PSV       0.115300
      6 O3         -43.3950     2.2200    10.9380 oh         1 PSV      -0.725000
      7 C4         -43.8870     4.5930    10.8650 c5         1 PSV       0.093300
      8 O4         -44.9130     4.1590     9.9510 oh         1 PSV      -0.719000
      9 C5         -42.5340     4.9510    10.1800 c5         1 PSV       0.134300
     10 O5         -41.6370     4.9780    11.3110 os         1 PSV      -0.441000
     11 C6         -42.5210     6.3130     9.4280 c3         1 PSV       0.169600
     12 O6         -41.2910     6.5040     8.7060 oh         1 PSV      -0.696000
     13 H11        -42.5370     5.1570    13.8470 h1         1 PSV       0.021200
     14 H12        -42.2210     3.4850    14.3150 h1         1 PSV       0.021200
     15 HO1        -40.5610     4.9200    15.0510 ho         1 PSV       0.498000
     16 HO2        -41.7450     2.1900    11.4130 ho         1 PSV       0.531000
     17 H3         -44.0770     3.2760    12.6260 h1         1 PSV       0.063700
     18 HO3        -44.0960     2.4230    10.2600 ho         1 PSV       0.539000
     19 H4         -44.2430     5.4270    11.4870 h1         1 PSV       0.047700
     20 HO4        -45.4170     4.9590     9.6630 ho         1 PSV       0.521000
     21 H5         -42.2180     4.1600     9.4850 h1         1 PSV       0.074700
     22 H61        -43.3670     6.3340     8.7280 h1         1 PSV       0.017200
     23 H62        -42.6710     7.1240    10.1540 h1         1 PSV       0.017200
     24 HO6        -41.3280     7.4050     8.3090 ho         1 PSV       0.503000
@<TRIPOS>BOND
     1     1     2 1   
     2     1     3 1   
     3     1    13 1   
     4     1    14 1   
     5     2    15 1   
     6     3     4 1   
     7     3     5 1   
     8     3    10 1   
     9     4    16 1   
    10     5     6 1   
    11     5     7 1   
    12     5    17 1   
    13     6    18 1   
    14     7     8 1   
    15     7     9 1   
    16     7    19 1   
    17     8    20 1   
    18     9    10 1   
    19     9    11 1   
    20     9    21 1   
    21    11    12 1   
    22    11    22 1   
    23    11    23 1   
    24    12    24 1   
@<TRIPOS>SUBSTRUCTURE
     1 PSV         1 TEMP              0 ****  ****    0 ROOT
