@<TRIPOS>MOLECULE
PSW
   14    13     1     0     0
SMALL
bcc


@<TRIPOS>ATOM
      1 N            1.4450     1.6590    -0.4030 n8         1 PSW      -0.891800
      2 C            2.8020    -0.4550     0.0310 c          1 PSW       0.909600
      3 O            3.6420    -0.0010    -0.7690 o          1 PSW      -0.824800
      4 CA           1.4820     0.3370     0.2010 c3         1 PSW       0.008500
      5 CB           0.3350    -0.4750    -0.3920 c3         1 PSW       0.139700
      6 SE          -1.1750     0.7840    -0.5340 ss         1 PSW      -0.219100
      7 SD          -2.8380    -0.6860    -0.6780 sh         1 PSW      -0.374800
      8 OXT          2.8860    -1.5040     0.6990 o          1 PSW      -0.824800
      9 HN1          1.9540     2.3200     0.1700 hn         1 PSW       0.340800
     10 HN2          1.9380     1.6290    -1.2890 hn         1 PSW       0.340800
     11 HA           1.2870     0.4590     1.2700 h1         1 PSW       0.047700
     12 HB1C         0.5720    -0.8450    -1.3920 h1         1 PSW       0.066200
     13 HB2C         0.0510    -1.3190     0.2340 h1         1 PSW       0.066200
     14 HD          -3.0600    -0.9150     0.6250 hs         1 PSW       0.214800
@<TRIPOS>BOND
     1     1     4 1   
     2     1     9 1   
     3     1    10 1   
     4     2     3 1   
     5     2     4 1   
     6     2     8 1   
     7     4     5 1   
     8     4    11 1   
     9     5     6 1   
    10     5    12 1   
    11     5    13 1   
    12     6     7 1   
    13     7    14 1   
@<TRIPOS>SUBSTRUCTURE
     1 PSW         1 TEMP              0 ****  ****    0 ROOT
