@<TRIPOS>MOLECULE
PSW
   14    13     1     0     0
SMALL
No Charge or Current Charge


@<TRIPOS>ATOM
      1 N            1.6690     1.8210    -0.3880 n8         1 PSW      -1.002200
      2 C            2.6960    -0.5380     0.1300 c          1 PSW       0.699000
      3 O            3.1330    -0.8290    -0.9760 o          1 PSW      -0.719500
      4 CA           1.4620     0.4370     0.2110 c3         1 PSW       0.008500
      5 CB           0.2250    -0.3010    -0.3730 c3         1 PSW       0.187600
      6 SE          -1.3680     0.5720     0.0240 ss         1 PSW      -0.267000
      7 SD          -2.8340    -0.6620    -0.8310 sh         1 PSW      -0.374800
      8 OXT          3.2220    -0.8960     1.1740 o          1 PSW      -0.719500
      9 HN1          2.4690     2.2730     0.0740 hn         1 PSW       0.396000
     10 HN2          1.9940     1.7160    -1.3580 hn         1 PSW       0.396000
     11 HA           1.2620     0.5840     1.2810 h1         1 PSW       0.047700
     12 HB1C         0.3240    -0.3950    -1.4620 h1         1 PSW       0.066200
     13 HB2C         0.1740    -1.3120     0.0510 h1         1 PSW       0.066200
     14 HD          -3.1060    -1.4810     0.2180 hs         1 PSW       0.214800
@<TRIPOS>BOND
     1     1     4 1   
     2     1     9 1   
     3     1    10 1   
     4     2     3 1   
     5     2     4 1   
     6     2     8 1   
     7     4     5 1   
     8     4    11 1   
     9     5     6 1   
    10     5    12 1   
    11     5    13 1   
    12     6     7 1   
    13     7    14 1   
@<TRIPOS>SUBSTRUCTURE
     1 PSW         1 TEMP              0 ****  ****    0 ROOT
