@<TRIPOS>MOLECULE
PSX
   28    27     1     0     0
SMALL
abcg2


@<TRIPOS>ATOM
      1 CAA          5.1170    -0.4120     0.8710 c3         1 PSX      -0.076100
      2 C6           3.9910     0.5600     0.5400 c3         1 PSX      -0.077400
      3 C5           2.6690    -0.1300     0.2380 c3         1 PSX       0.190300
      4 OC5          2.8300    -0.9220    -0.9220 oh         1 PSX      -0.728000
      5 C4           1.4850     0.8450     0.1030 c3         1 PSX      -0.101700
      6 CAB          1.6490     1.8110    -1.0660 c3         1 PSX      -0.059100
      7 C3           0.1660     0.0590     0.0580 c3         1 PSX       0.228300
      8 OC3          0.1820    -0.8140    -1.0580 oh         1 PSX      -0.846000
      9 C2          -1.0970     0.9180     0.0310 c3         1 PSX      -0.444400
     10 P1          -2.6260    -0.1430     0.0520 p5         1 PSX       1.315500
     11 O2P         -2.2800    -1.2080    -1.0440 o          1 PSX      -0.898833
     12 O1P         -2.7140    -0.7540     1.4490 o          1 PSX      -0.898833
     13 O3P         -3.8030     0.7450    -0.3430 o          1 PSX      -0.898833
     14 HAA1         4.8720    -1.0180     1.7460 hc         1 PSX       0.016367
     15 HAA2         5.3170    -1.0910     0.0420 hc         1 PSX       0.016367
     16 HAA3         6.0430     0.1210     1.0910 hc         1 PSX       0.016367
     17 H61          3.8380     1.2420     1.3820 hc         1 PSX       0.026700
     18 H62          4.2860     1.1820    -0.3100 hc         1 PSX       0.026700
     19 H5           2.4420    -0.7770     1.1060 h1         1 PSX       0.016700
     20 HOC5         1.9240    -1.1420    -1.2060 ho         1 PSX       0.510000
     21 H4           1.4580     1.4310     1.0310 hc         1 PSX       0.020700
     22 HAB1         1.6800     1.2910    -2.0230 hc         1 PSX       0.015700
     23 HAB2         0.8280     2.5260    -1.1070 hc         1 PSX       0.015700
     24 HAB3         2.5680     2.3930    -0.9790 hc         1 PSX       0.015700
     25 H3           0.1290    -0.5310     0.9930 h1         1 PSX       0.012700
     26 HOC3        -0.7970    -1.1060    -1.1650 ho         1 PSX       0.554000
     27 H21         -1.0970     1.6030     0.8850 hc         1 PSX       0.014700
     28 H22         -1.1020     1.5400    -0.8700 hc         1 PSX       0.014700
@<TRIPOS>BOND
     1     1     2 1   
     2     1    14 1   
     3     1    15 1   
     4     1    16 1   
     5     2     3 1   
     6     2    17 1   
     7     2    18 1   
     8     3     4 1   
     9     3     5 1   
    10     3    19 1   
    11     4    20 1   
    12     5     6 1   
    13     5     7 1   
    14     5    21 1   
    15     6    22 1   
    16     6    23 1   
    17     6    24 1   
    18     7     8 1   
    19     7     9 1   
    20     7    25 1   
    21     8    26 1   
    22     9    10 1   
    23     9    27 1   
    24     9    28 1   
    25    10    11 1   
    26    10    12 1   
    27    10    13 1   
@<TRIPOS>SUBSTRUCTURE
     1 PSX         1 TEMP              0 ****  ****    0 ROOT
