@<TRIPOS>MOLECULE
PSX
   28    27     1     0     0
SMALL
No Charge or Current Charge


@<TRIPOS>ATOM
      1 CAA          5.1960    -0.4190     0.9090 c3         1 PSX      -0.076100
      2 C6           4.0700     0.5510     0.4930 c3         1 PSX      -0.077400
      3 C5           2.6940    -0.1360     0.2860 c3         1 PSX       0.190300
      4 OC5          2.7280    -0.9900    -0.8540 oh         1 PSX      -0.728000
      5 C4           1.4850     0.8330     0.1120 c3         1 PSX      -0.101700
      6 CAB          1.6780     1.8630    -1.0430 c3         1 PSX      -0.059100
      7 C3           0.1490     0.0240     0.0110 c3         1 PSX       0.228300
      8 OC3          0.1300    -0.7700    -1.1720 oh         1 PSX      -0.846000
      9 C2          -1.1270     0.8700    -0.0020 c3         1 PSX      -0.444400
     10 P1          -2.6310    -0.1650     0.0480 p5         1 PSX       1.315500
     11 O2P         -2.4090    -1.2300    -0.9740 o          1 PSX      -0.898833
     12 O1P         -2.7730    -0.7450     1.4120 o          1 PSX      -0.898833
     13 O3P         -3.8060     0.6830    -0.3000 o          1 PSX      -0.898833
     14 HAA1         4.9360    -0.9380     1.8390 hc         1 PSX       0.016367
     15 HAA2         5.3750    -1.1710     0.1300 hc         1 PSX       0.016367
     16 HAA3         6.1310     0.1300     1.0730 hc         1 PSX       0.016367
     17 H61          3.9710     1.3170     1.2720 hc         1 PSX       0.026700
     18 H62          4.3770     1.0680    -0.4240 hc         1 PSX       0.026700
     19 H5           2.4910    -0.7410     1.1810 h1         1 PSX       0.016700
     20 HOC5         1.7590    -0.9890    -1.1300 ho         1 PSX       0.510000
     21 H4           1.4250     1.4180     1.0380 hc         1 PSX       0.020700
     22 HAB1         1.7580     1.3650    -2.0160 hc         1 PSX       0.015700
     23 HAB2         0.8410     2.5690    -1.0880 hc         1 PSX       0.015700
     24 HAB3         2.5830     2.4620    -0.8900 hc         1 PSX       0.015700
     25 H3           0.0980    -0.6340     0.8890 h1         1 PSX       0.012700
     26 HOC3        -0.8470    -1.0350    -1.2350 ho         1 PSX       0.554000
     27 H21         -1.1440     1.5390     0.8650 hc         1 PSX       0.014700
     28 H22         -1.1800     1.4890    -0.9040 hc         1 PSX       0.014700
@<TRIPOS>BOND
     1     1     2 1   
     2     1    14 1   
     3     1    15 1   
     4     1    16 1   
     5     2     3 1   
     6     2    17 1   
     7     2    18 1   
     8     3     4 1   
     9     3     5 1   
    10     3    19 1   
    11     4    20 1   
    12     5     6 1   
    13     5     7 1   
    14     5    21 1   
    15     6    22 1   
    16     6    23 1   
    17     6    24 1   
    18     7     8 1   
    19     7     9 1   
    20     7    25 1   
    21     8    26 1   
    22     9    10 1   
    23     9    27 1   
    24     9    28 1   
    25    10    11 1   
    26    10    12 1   
    27    10    13 1   
@<TRIPOS>SUBSTRUCTURE
     1 PSX         1 TEMP              0 ****  ****    0 ROOT
