@<TRIPOS>MOLECULE
PSY
   20    20     1     0     0
SMALL
No Charge or Current Charge


@<TRIPOS>ATOM
      1 C1           3.5270    -0.4590    -0.2690 ca         1 PSY      -0.106000
      2 C2           2.6550    -1.5200     0.0320 ca         1 PSY      -0.095500
      3 C3           3.0700     0.8700    -0.2030 ca         1 PSY      -0.095500
      4 C4           1.3230    -1.2520     0.3960 ca         1 PSY      -0.110000
      5 C5           1.7380     1.1370     0.1600 ca         1 PSY      -0.110000
      6 C6           0.8620     0.0750     0.4470 ca         1 PSY       0.114100
      7 O1          -0.4320     0.3290     0.8200 os         1 PSY      -0.442800
      8 S           -1.6050     0.6320    -0.3820 sy         1 PSY       1.264800
      9 O2          -2.7750     1.2290     0.2750 o          1 PSY      -0.528000
     10 O3          -0.9420     1.2300    -1.5490 o          1 PSY      -0.528000
     11 C7          -1.8900    -1.1130    -0.6760 ce         1 PSY      -0.442100
     12 C8          -2.7280    -1.8700     0.0810 c2         1 PSY      -0.131000
     13 H1           4.5580    -0.6660    -0.5490 ha         1 PSY       0.119000
     14 H2           3.0110    -2.5470    -0.0130 ha         1 PSY       0.120500
     15 H3           3.7480     1.6900    -0.4310 ha         1 PSY       0.120500
     16 H4           0.6480    -2.0700     0.6350 ha         1 PSY       0.131500
     17 H5           1.3850     2.1640     0.2170 ha         1 PSY       0.131500
     18 H7          -1.3080    -1.4710    -1.5240 h4         1 PSY       0.225000
     19 H8          -3.2850    -1.4570     0.9240 ha         1 PSY       0.181000
     20 H8A         -2.8800    -2.9310    -0.1200 ha         1 PSY       0.181000
@<TRIPOS>BOND
     1     1     2 ar  
     2     1     3 ar  
     3     1    13 1   
     4     2     4 ar  
     5     2    14 1   
     6     3     5 ar  
     7     3    15 1   
     8     4     6 ar  
     9     4    16 1   
    10     5     6 ar  
    11     5    17 1   
    12     6     7 1   
    13     7     8 1   
    14     8     9 2   
    15     8    10 2   
    16     8    11 1   
    17    11    12 2   
    18    11    18 1   
    19    12    19 1   
    20    12    20 1   
@<TRIPOS>SUBSTRUCTURE
     1 PSY         1 TEMP              0 ****  ****    0 ROOT
