@<TRIPOS>MOLECULE
PSY
   20    20     1     0     0
SMALL
bcc


@<TRIPOS>ATOM
      1 C1           3.5540    -0.4150    -0.3170 ca         1 PSY      -0.124000
      2 C2           2.7330    -1.4630     0.0800 ca         1 PSY      -0.113500
      3 C3           3.0680     0.8860    -0.3120 ca         1 PSY      -0.113500
      4 C4           1.4250    -1.2170     0.4750 ca         1 PSY      -0.128000
      5 C5           1.7620     1.1460     0.0780 ca         1 PSY      -0.128000
      6 C6           0.9580     0.0870     0.4670 ca         1 PSY       0.114100
      7 O1          -0.3350     0.3400     0.9060 os         1 PSY      -0.442800
      8 S           -1.5310     0.4730    -0.1900 sy         1 PSY       1.406400
      9 O2          -2.6130     1.0580     0.5650 o          1 PSY      -0.598800
     10 O3          -1.0060     1.1280    -1.3670 o          1 PSY      -0.598800
     11 C7          -1.8810    -1.1980    -0.5870 ce         1 PSY      -0.392100
     12 C8          -2.9740    -1.7890    -0.1320 c2         1 PSY      -0.031000
     13 H1           4.5720    -0.6120    -0.6230 ha         1 PSY       0.137000
     14 H2           3.1080    -2.4780     0.0830 ha         1 PSY       0.138500
     15 H3           3.7060     1.7060    -0.6140 ha         1 PSY       0.138500
     16 H4           0.7840    -2.0280     0.7970 ha         1 PSY       0.149500
     17 H5           1.3820     2.1590     0.0950 ha         1 PSY       0.149500
     18 H7          -1.1590    -1.6750    -1.2370 h4         1 PSY       0.175000
     19 H8          -3.6910    -1.2920     0.5080 ha         1 PSY       0.131000
     20 H8A         -3.1830    -2.8140    -0.4040 ha         1 PSY       0.131000
@<TRIPOS>BOND
     1     1     2 ar  
     2     1     3 ar  
     3     1    13 1   
     4     2     4 ar  
     5     2    14 1   
     6     3     5 ar  
     7     3    15 1   
     8     4     6 ar  
     9     4    16 1   
    10     5     6 ar  
    11     5    17 1   
    12     6     7 1   
    13     7     8 1   
    14     8     9 2   
    15     8    10 2   
    16     8    11 1   
    17    11    12 2   
    18    11    18 1   
    19    12    19 1   
    20    12    20 1   
@<TRIPOS>SUBSTRUCTURE
     1 PSY         1 TEMP              0 ****  ****    0 ROOT
