@<TRIPOS>MOLECULE
PT0
   34    33     1     0     0
SMALL
No Charge or Current Charge


@<TRIPOS>ATOM
      1 N            1.7370     2.1590    -1.3480 n8         1 PT0      -1.004200
      2 O           -2.7360     0.9470     1.5780 o          1 PT0      -0.521000
      3 P            0.2120     0.3650     0.5330 p5         1 PT0       1.354000
      4 C5          -2.3410     0.6050     0.4740 c          1 PT0       0.636100
      5 C6          -4.2810    -0.7560     0.0740 c3         1 PT0       0.170600
      6 O6          -3.0660    -0.1560    -0.4020 os         1 PT0      -0.442100
      7 C7          -4.8820    -1.5680    -1.0850 c3         1 PT0      -0.091100
      8 CA           1.6480     0.7890    -0.6790 c3         1 PT0      -0.185500
      9 CB           3.0550     0.4520    -0.0890 c3         1 PT0      -0.037400
     10 CG           3.3140    -1.0250     0.3360 c3         1 PT0      -0.066700
     11 CP          -1.1750     1.2390    -0.2130 c3         1 PT0      -0.486400
     12 O1P          0.4920     0.9350     1.8870 o          1 PT0      -0.792500
     13 O2P         -0.0610    -1.1050     0.5490 o          1 PT0      -0.792500
     14 CD1          3.1730    -2.0250    -0.8380 c3         1 PT0      -0.078600
     15 CD2          4.7030    -1.1660     1.0020 c3         1 PT0      -0.078600
     16 HN           0.8450     2.3860    -1.8090 hn         1 PT0       0.384000
     17 HNA          1.8290     2.8950    -0.6340 hn         1 PT0       0.384000
     18 H6          -4.0800    -1.4240     0.9230 h1         1 PT0       0.038700
     19 H6A         -4.9990     0.0110     0.3940 h1         1 PT0       0.038700
     20 H7          -5.1040    -0.9170    -1.9390 hc         1 PT0       0.034700
     21 H7A         -4.1870    -2.3510    -1.4100 hc         1 PT0       0.034700
     22 H7B         -5.8150    -2.0480    -0.7670 hc         1 PT0       0.034700
     23 HA           1.4540     0.0800    -1.4940 h1         1 PT0       0.052700
     24 HB           3.8230     0.7260    -0.8240 hc         1 PT0       0.033200
     25 HBA          3.2250     1.0990     0.7810 hc         1 PT0       0.033200
     26 HG           2.5790    -1.3040     1.1000 hc         1 PT0       0.078700
     27 HP          -1.0770     2.3010     0.0280 hc         1 PT0       0.068700
     28 HPA         -1.1450     1.0210    -1.2850 hc         1 PT0       0.068700
     29 HD1          2.1510    -2.0350    -1.2320 hc         1 PT0       0.022200
     30 HD1A         3.8570    -1.7660    -1.6550 hc         1 PT0       0.022200
     31 HD1B         3.4070    -3.0440    -0.5070 hc         1 PT0       0.022200
     32 HD2          4.7880    -0.5000     1.8690 hc         1 PT0       0.022200
     33 HD2A         4.8650    -2.1930     1.3500 hc         1 PT0       0.022200
     34 HD2B         5.5030    -0.9130     0.2950 hc         1 PT0       0.022200
@<TRIPOS>BOND
     1     1     8 1   
     2     1    16 1   
     3     1    17 1   
     4     2     4 2   
     5     3     8 1   
     6     3    11 1   
     7     3    12 1   
     8     3    13 1   
     9     4     6 1   
    10     4    11 1   
    11     5     6 1   
    12     5     7 1   
    13     5    18 1   
    14     5    19 1   
    15     7    20 1   
    16     7    21 1   
    17     7    22 1   
    18     8     9 1   
    19     8    23 1   
    20     9    10 1   
    21     9    24 1   
    22     9    25 1   
    23    10    14 1   
    24    10    15 1   
    25    10    26 1   
    26    11    27 1   
    27    11    28 1   
    28    14    29 1   
    29    14    30 1   
    30    14    31 1   
    31    15    32 1   
    32    15    33 1   
    33    15    34 1   
@<TRIPOS>SUBSTRUCTURE
     1 PT0         1 TEMP              0 ****  ****    0 ROOT
