@<TRIPOS>MOLECULE
PT0
   34    33     1     0     0
SMALL
bcc


@<TRIPOS>ATOM
      1 N            1.7940     2.2720    -0.9730 n8         1 PT0      -0.893800
      2 O           -2.8770     1.1980     1.3080 o          1 PT0      -0.570000
      3 P            0.2770     0.5590     0.5690 p5         1 PT0       1.038400
      4 C5          -2.4130     0.8360     0.2510 c          1 PT0       0.685100
      5 C6          -4.1190    -0.7870     0.0240 c3         1 PT0       0.147400
      6 O6          -2.9620    -0.1180    -0.4910 os         1 PT0      -0.418900
      7 C7          -4.5070    -1.8620    -0.9620 c3         1 PT0      -0.091100
      8 CA           1.6690     0.8580    -0.6160 c3         1 PT0      -0.027700
      9 CB           3.0140     0.3960    -0.0500 c3         1 PT0      -0.037400
     10 CG           3.1590    -1.0800     0.3270 c3         1 PT0      -0.066700
     11 CP          -1.1550     1.3680    -0.3410 c3         1 PT0      -0.328600
     12 O1P          0.5550     1.3510     1.8270 o          1 PT0      -0.792500
     13 O2P         -0.0800    -0.9080     0.6700 o          1 PT0      -0.792500
     14 CD1          2.8370    -2.0070    -0.8390 c3         1 PT0      -0.078600
     15 CD2          4.5730    -1.3350     0.8370 c3         1 PT0      -0.078600
     16 HN           0.9780     2.5820    -1.4860 hn         1 PT0       0.328800
     17 HNA          1.8170     2.8280    -0.1260 hn         1 PT0       0.328800
     18 H6          -3.8930    -1.2200     1.0010 h1         1 PT0       0.038700
     19 H6A         -4.9330    -0.0710     0.1580 h1         1 PT0       0.038700
     20 H7          -4.7410    -1.4440    -1.9410 hc         1 PT0       0.034700
     21 H7A         -3.7160    -2.6030    -1.0810 hc         1 PT0       0.034700
     22 H7B         -5.3960    -2.3780    -0.5990 hc         1 PT0       0.034700
     23 HA           1.4510     0.3070    -1.5370 h1         1 PT0       0.052700
     24 HB           3.7810     0.6410    -0.7940 hc         1 PT0       0.033200
     25 HBA          3.2440     1.0050     0.8310 hc         1 PT0       0.033200
     26 HG           2.4600    -1.3040     1.1370 hc         1 PT0       0.078700
     27 HP          -1.1170     2.4500    -0.2170 hc         1 PT0       0.068700
     28 HPA         -1.0870     1.1310    -1.4040 hc         1 PT0       0.068700
     29 HD1          1.7900    -1.9300    -1.1320 hc         1 PT0       0.022200
     30 HD1A         3.4550    -1.7690    -1.7090 hc         1 PT0       0.022200
     31 HD1B         3.0290    -3.0490    -0.5750 hc         1 PT0       0.022200
     32 HD2          4.8240    -0.6810     1.6750 hc         1 PT0       0.022200
     33 HD2A         4.6930    -2.3660     1.1740 hc         1 PT0       0.022200
     34 HD2B         5.3100    -1.1580     0.0490 hc         1 PT0       0.022200
@<TRIPOS>BOND
     1     1     8 1   
     2     1    16 1   
     3     1    17 1   
     4     2     4 2   
     5     3     8 1   
     6     3    11 1   
     7     3    12 1   
     8     3    13 1   
     9     4     6 1   
    10     4    11 1   
    11     5     6 1   
    12     5     7 1   
    13     5    18 1   
    14     5    19 1   
    15     7    20 1   
    16     7    21 1   
    17     7    22 1   
    18     8     9 1   
    19     8    23 1   
    20     9    10 1   
    21     9    24 1   
    22     9    25 1   
    23    10    14 1   
    24    10    15 1   
    25    10    26 1   
    26    11    27 1   
    27    11    28 1   
    28    14    29 1   
    29    14    30 1   
    30    14    31 1   
    31    15    32 1   
    32    15    33 1   
    33    15    34 1   
@<TRIPOS>SUBSTRUCTURE
     1 PT0         1 TEMP              0 ****  ****    0 ROOT
