@<TRIPOS>MOLECULE
PT1
   34    36     1     0     0
SMALL
abcg2


@<TRIPOS>ATOM
      1 C2           1.5150     0.0650    10.7140 ca         1 PT1       0.429300
      2 C3           1.3130     0.9310     9.5900 ca         1 PT1       0.069000
      3 C5           2.4890     1.3080     8.8970 ca         1 PT1       0.097000
      4 N6           0.0910     1.3590     9.2330 nb         1 PT1      -0.580000
      5 C7           3.7640     0.0640    10.3090 ca         1 PT1       0.431900
      6 N9           3.7120     0.8750     9.2580 nb         1 PT1      -0.253000
      7 C10          0.0130     2.1600     8.1910 ca         1 PT1       0.261300
      8 N11          4.9590    -0.4170    10.6930 nv         1 PT1      -1.074900
      9 C12          1.1850     2.5480     7.4970 ca         1 PT1       0.115900
     10 C21         -0.9820     8.7890    10.2060 c          1 PT1       0.706600
     11 O22         -0.6560     8.6930    11.4200 o          1 PT1      -0.728500
     12 O1           0.4490    -0.3100    11.4160 oh         1 PT1      -0.605300
     13 N4           2.6980    -0.3550    11.0590 nb         1 PT1      -0.357000
     14 N8           2.3900     2.1400     7.8290 nb         1 PT1      -0.116000
     15 C13         -1.3570     2.6260     7.7480 c3         1 PT1       0.189500
     16 N14         -1.3570     3.9460     7.1630 nu         1 PT1      -0.997200
     17 C15         -1.2740     5.0960     7.9200 ca         1 PT1       0.267000
     18 C16         -0.9400     5.0740     9.2830 ca         1 PT1      -0.203000
     19 C17         -1.5060     6.3440     7.3140 ca         1 PT1      -0.203000
     20 C18         -0.8460     6.2610     9.9990 ca         1 PT1      -0.054000
     21 C19         -1.4110     7.5130     8.0470 ca         1 PT1      -0.054000
     22 C20         -1.0780     7.5020     9.4070 ca         1 PT1      -0.155600
     23 O23         -1.2370     9.8640     9.6000 o          1 PT1      -0.728500
     24 H111         5.0330    -0.9660    11.5310 hn         1 PT1       0.505000
     25 H112         5.7950    -0.0980    10.2340 hn         1 PT1       0.505000
     26 H12          1.1000     3.2190     6.6500 h4         1 PT1       0.049100
     27 HO1          0.7430    -0.8900    12.1390 ho         1 PT1       0.480000
     28 H131        -1.7290     1.9340     6.9890 h1         1 PT1       0.051200
     29 H132        -2.0310     2.5530     8.6080 h1         1 PT1       0.051200
     30 H14         -1.8060     4.0350     6.2670 hn         1 PT1       0.469000
     31 H16         -0.7520     4.1370     9.7870 ha         1 PT1       0.088000
     32 H17         -1.7660     6.3780     6.2620 ha         1 PT1       0.088000
     33 H18         -0.5870     6.2310    11.0490 ha         1 PT1       0.127500
     34 H19         -1.6000     8.4640     7.5680 ha         1 PT1       0.127500
@<TRIPOS>BOND
     1     1     2 ar  
     2     1    12 1   
     3     1    13 ar  
     4     2     3 ar  
     5     2     4 ar  
     6     3     6 ar  
     7     3    14 ar  
     8     4     7 ar  
     9     5     6 ar  
    10     5     8 1   
    11     5    13 ar  
    12     7     9 ar  
    13     7    15 1   
    14     8    24 1   
    15     8    25 1   
    16     9    14 ar  
    17     9    26 1   
    18    10    11 1   
    19    10    22 1   
    20    10    23 1   
    21    12    27 1   
    22    15    16 1   
    23    15    28 1   
    24    15    29 1   
    25    16    17 1   
    26    16    30 1   
    27    17    18 ar  
    28    17    19 ar  
    29    18    20 ar  
    30    18    31 1   
    31    19    21 ar  
    32    19    32 1   
    33    20    22 ar  
    34    20    33 1   
    35    21    22 ar  
    36    21    34 1   
@<TRIPOS>SUBSTRUCTURE
     1 PT1         1 TEMP              0 ****  ****    0 ROOT
