@<TRIPOS>MOLECULE
PT1
   34    36     1     0     0
SMALL
No Charge or Current Charge


@<TRIPOS>ATOM
      1 C2           1.5130     0.1820    10.6990 ca         1 PT1       0.429300
      2 C3           1.2560     0.9820     9.5450 ca         1 PT1       0.069000
      3 C5           2.4040     1.4220     8.8080 ca         1 PT1       0.097000
      4 N6          -0.0090     1.3180     9.1540 nb         1 PT1      -0.580000
      5 C7           3.7350     0.3130    10.3280 ca         1 PT1       0.431900
      6 N9           3.6390     1.0690     9.2290 nb         1 PT1      -0.253000
      7 C10         -0.1380     2.0880     8.0450 ca         1 PT1       0.261300
      8 N11          4.9800    -0.0230    10.7240 nv         1 PT1      -1.074900
      9 C12          0.9930     2.5120     7.3240 ca         1 PT1       0.115900
     10 C21         -0.5600     8.5940    10.3150 c          1 PT1       0.706600
     11 O22         -0.4480     8.4880    11.5280 o          1 PT1      -0.728500
     12 O1           0.5070    -0.3000    11.4850 oh         1 PT1      -0.605300
     13 N4           2.7500    -0.1520    11.0910 nb         1 PT1      -0.357000
     14 N8           2.2450     2.1840     7.7020 nb         1 PT1      -0.116000
     15 C13         -1.5610     2.4720     7.5980 c3         1 PT1       0.189500
     16 N14         -1.7170     3.8990     7.2010 nu         1 PT1      -0.997200
     17 C15         -1.4400     5.0230     7.9790 ca         1 PT1       0.267000
     18 C16         -1.3030     4.9400     9.3740 ca         1 PT1      -0.203000
     19 C17         -1.2950     6.2640     7.3460 ca         1 PT1      -0.203000
     20 C18         -1.0190     6.0910    10.1310 ca         1 PT1      -0.054000
     21 C19         -1.0100     7.4200     8.0960 ca         1 PT1      -0.054000
     22 C20         -0.8670     7.3480     9.5010 ca         1 PT1      -0.155600
     23 O23         -0.4350     9.6600     9.7300 o          1 PT1      -0.728500
     24 H111         5.0990    -0.3840    11.6670 hn         1 PT1       0.505000
     25 H112         5.7670     0.4920    10.3330 hn         1 PT1       0.505000
     26 H12          0.8990     3.1250     6.4290 h4         1 PT1       0.049100
     27 HO1          0.9470    -0.8100    12.1960 ho         1 PT1       0.480000
     28 H131        -1.8370     1.8250     6.7540 h1         1 PT1       0.051200
     29 H132        -2.2610     2.2420     8.4130 h1         1 PT1       0.051200
     30 H14         -1.8660     4.0850     6.2070 hn         1 PT1       0.469000
     31 H16         -1.4200     3.9900     9.8850 ha         1 PT1       0.088000
     32 H17         -1.3990     6.3420     6.2670 ha         1 PT1       0.088000
     33 H18         -0.9180     6.0010    11.2100 ha         1 PT1       0.127500
     34 H19         -0.9010     8.3710     7.5790 ha         1 PT1       0.127500
@<TRIPOS>BOND
     1     1     2 ar  
     2     1    12 1   
     3     1    13 ar  
     4     2     3 ar  
     5     2     4 ar  
     6     3     6 ar  
     7     3    14 ar  
     8     4     7 ar  
     9     5     6 ar  
    10     5     8 1   
    11     5    13 ar  
    12     7     9 ar  
    13     7    15 1   
    14     8    24 1   
    15     8    25 1   
    16     9    14 ar  
    17     9    26 1   
    18    10    11 1   
    19    10    22 1   
    20    10    23 1   
    21    12    27 1   
    22    15    16 1   
    23    15    28 1   
    24    15    29 1   
    25    16    17 1   
    26    16    30 1   
    27    17    18 ar  
    28    17    19 ar  
    29    18    20 ar  
    30    18    31 1   
    31    19    21 ar  
    32    19    32 1   
    33    20    22 ar  
    34    20    33 1   
    35    21    22 ar  
    36    21    34 1   
@<TRIPOS>SUBSTRUCTURE
     1 PT1         1 TEMP              0 ****  ****    0 ROOT
