@<TRIPOS>MOLECULE
PT3
   25    24     1     0     0
SMALL
No Charge or Current Charge


@<TRIPOS>ATOM
      1 O1           1.8790     0.8160    -2.4940 o          1 PT3      -0.713500
      2 O11          0.7690    -0.4150    -3.8750 o          1 PT3      -0.713500
      3 C1           1.0010     0.0040    -2.7470 c          1 PT3       0.705000
      4 C2           0.1800    -0.6150    -1.5620 c3         1 PT3      -0.014700
      5 O2          -0.7600    -1.6390    -2.0070 oh         1 PT3      -0.703000
      6 C3          -0.5510     0.4800    -0.7330 c3         1 PT3       0.105300
      7 O3          -1.7160     0.9300    -1.4660 oh         1 PT3      -0.638000
      8 C4          -0.9020    -0.0300     0.7040 c          1 PT3       0.572100
      9 O41         -1.9440    -0.6180     0.9810 o          1 PT3      -0.631100
     10 N4           0.0220     0.2870     1.6810 ns         1 PT3      -0.512900
     11 C41         -0.1170    -0.0680     3.0930 c3         1 PT3       0.108000
     12 C42          1.1160     0.3610     3.9100 c3         1 PT3      -0.096400
     13 C43          1.0010     0.0000     5.4030 c3         1 PT3      -0.085100
     14 H21          0.9270    -1.0800    -0.9050 h1         1 PT3       0.029700
     15 HO2         -0.5720    -1.7520    -2.9730 ho         1 PT3       0.478000
     16 H31          0.1400     1.3220    -0.5910 h1         1 PT3       0.086700
     17 HO3         -2.2020     0.1040    -1.6910 ho         1 PT3       0.457000
     18 H41N         0.8520     0.7890     1.3880 hn         1 PT3       0.314500
     19 H411        -0.2510    -1.1550     3.1730 h1         1 PT3       0.041200
     20 H412        -1.0140     0.4230     3.4940 h1         1 PT3       0.041200
     21 H421         1.2560     1.4450     3.8140 hc         1 PT3       0.041700
     22 H422         2.0110    -0.1180     3.4940 hc         1 PT3       0.041700
     23 H431         1.8980     0.3230     5.9450 hc         1 PT3       0.028700
     24 H432         0.1320     0.4920     5.8550 hc         1 PT3       0.028700
     25 H433         0.8930    -1.0840     5.5330 hc         1 PT3       0.028700
@<TRIPOS>BOND
     1     1     3 1   
     2     2     3 1   
     3     3     4 1   
     4     4     5 1   
     5     4     6 1   
     6     4    14 1   
     7     5    15 1   
     8     6     7 1   
     9     6     8 1   
    10     6    16 1   
    11     7    17 1   
    12     8     9 2   
    13     8    10 1   
    14    10    11 1   
    15    10    18 1   
    16    11    12 1   
    17    11    19 1   
    18    11    20 1   
    19    12    13 1   
    20    12    21 1   
    21    12    22 1   
    22    13    23 1   
    23    13    24 1   
    24    13    25 1   
@<TRIPOS>SUBSTRUCTURE
     1 PT3         1 TEMP              0 ****  ****    0 ROOT
