@<TRIPOS>MOLECULE
PT3
   25    24     1     0     0
SMALL
bcc


@<TRIPOS>ATOM
      1 O1           1.4080     1.0600    -2.9150 o          1 PT3      -0.818800
      2 O11          0.4940    -0.8370    -3.6760 o          1 PT3      -0.818800
      3 C1           0.8140    -0.0200    -2.7840 c          1 PT3       0.915600
      4 C2           0.4130    -0.4420    -1.3520 c3         1 PT3      -0.037900
      5 O2          -0.2220    -1.6920    -1.3850 oh         1 PT3      -0.640800
      6 C3          -0.5190     0.6090    -0.7390 c3         1 PT3       0.082100
      7 O3          -1.6540     0.8200    -1.5280 oh         1 PT3      -0.575800
      8 C4          -0.9180     0.1800     0.6730 c          1 PT3       0.639100
      9 O41         -2.0180    -0.3000     0.9090 o          1 PT3      -0.631100
     10 N4           0.0270     0.3370     1.6070 ns         1 PT3      -0.579900
     11 C41         -0.1560    -0.0490     2.9910 c3         1 PT3       0.108000
     12 C42          1.1080     0.2060     3.7960 c3         1 PT3      -0.096400
     13 C43          0.9230    -0.1660     5.2600 c3         1 PT3      -0.085100
     14 H21          1.3280    -0.4890    -0.7450 h1         1 PT3       0.029700
     15 HO2         -0.2320    -1.8950    -2.3400 ho         1 PT3       0.439000
     16 H31          0.0240     1.5570    -0.6920 h1         1 PT3       0.086700
     17 HO3         -2.1920     0.0200    -1.4880 ho         1 PT3       0.418000
     18 H41N         0.8900     0.7920     1.3530 hn         1 PT3       0.314500
     19 H411        -0.4220    -1.1080     3.0480 h1         1 PT3       0.041200
     20 H412        -0.9900     0.5090     3.4280 h1         1 PT3       0.041200
     21 H421         1.3820     1.2620     3.7170 hc         1 PT3       0.041700
     22 H422         1.9350    -0.3660     3.3680 hc         1 PT3       0.041700
     23 H431         1.8320     0.0220     5.8300 hc         1 PT3       0.028700
     24 H432         0.1200     0.4150     5.7150 hc         1 PT3       0.028700
     25 H433         0.6730    -1.2220     5.3720 hc         1 PT3       0.028700
@<TRIPOS>BOND
     1     1     3 1   
     2     2     3 1   
     3     3     4 1   
     4     4     5 1   
     5     4     6 1   
     6     4    14 1   
     7     5    15 1   
     8     6     7 1   
     9     6     8 1   
    10     6    16 1   
    11     7    17 1   
    12     8     9 2   
    13     8    10 1   
    14    10    11 1   
    15    10    18 1   
    16    11    12 1   
    17    11    19 1   
    18    11    20 1   
    19    12    13 1   
    20    12    21 1   
    21    12    22 1   
    22    13    23 1   
    23    13    24 1   
    24    13    25 1   
@<TRIPOS>SUBSTRUCTURE
     1 PT3         1 TEMP              0 ****  ****    0 ROOT
