@<TRIPOS>MOLECULE
PT6
   44    46     1     0     0
SMALL
No Charge or Current Charge


@<TRIPOS>ATOM
      1 O1           1.4730    -0.1030     1.8290 o          1 PT6      -0.560000
      2 C18          1.0540     0.5590     0.8900 c          1 PT6       0.571200
      3 N1           1.8860     1.3530     0.0710 n          1 PT6      -0.281000
      4 C7           3.3410     1.3680     0.3600 c3         1 PT6       0.133300
      5 C6           4.1380     0.1620    -0.1660 ca         1 PT6      -0.054300
      6 C5           3.6310    -0.5970    -1.2450 ca         1 PT6      -0.138000
      7 C4           4.3300    -1.7080    -1.7350 ca         1 PT6      -0.070000
      8 C3           5.5480    -2.0770    -1.1510 ca         1 PT6      -0.174000
      9 C2           6.0790    -1.3360    -0.0870 ca         1 PT6       0.288000
     10 N            7.2710    -1.7530     0.4490 nv         1 PT6      -1.072000
     11 C1           5.3890    -0.1980     0.4100 ca         1 PT6      -0.128300
     12 C            5.9720     0.6380     1.5620 c3         1 PT6      -0.045800
     13 C17         -0.3660     0.5800     0.5430 cc         1 PT6      -0.444200
     14 C10         -0.8610     1.3180    -0.5050 cd         1 PT6       0.234100
     15 C9           0.0290     2.1020    -1.2960 cd         1 PT6      -0.315000
     16 C8           1.3740     2.1010    -0.9920 cc         1 PT6      -0.009400
     17 O           -2.1910     1.3360    -0.8300 os         1 PT6      -0.340100
     18 C11         -3.1590     0.5730    -0.0870 c3         1 PT6       0.160600
     19 C12         -4.5420     0.8220    -0.7190 c3         1 PT6      -0.007100
     20 C13         -5.6470     0.0720    -0.0200 cc         1 PT6      -0.216300
     21 S           -5.8810    -1.6590    -0.2700 ss         1 PT6       0.191000
     22 C16         -7.2550    -1.6660     0.8320 cc         1 PT6      -0.234000
     23 C15         -7.4900    -0.4100     1.3330 cd         1 PT6      -0.132000
     24 C14         -6.5830     0.5710     0.8510 cd         1 PT6      -0.124000
     25 H17         -0.9850    -0.0340     1.1820 ha         1 PT6       0.211000
     26 H71C         3.7800     2.2820    -0.0600 h1         1 PT6       0.071200
     27 H72C         3.4630     1.4400     1.4480 h1         1 PT6       0.071200
     28 H8           2.1360     2.6560    -1.5320 h4         1 PT6       0.203000
     29 H5           2.6870    -0.3340    -1.7150 ha         1 PT6       0.117000
     30 H4           3.9250    -2.2850    -2.5640 ha         1 PT6       0.112000
     31 H3           6.0800    -2.9450    -1.5320 ha         1 PT6       0.111000
     32 HN1          7.6600    -2.6530     0.1760 hn         1 PT6       0.444500
     33 HN2          7.6030    -1.3420     1.3180 hn         1 PT6       0.444500
     34 HC1          5.5000     0.3710     2.5140 hc         1 PT6       0.040033
     35 HC2          7.0540     0.5100     1.6810 hc         1 PT6       0.040033
     36 HC3          5.8180     1.7110     1.4000 hc         1 PT6       0.040033
     37 H9          -0.3520     2.6870    -2.1270 ha         1 PT6       0.212000
     38 H111        -2.9270    -0.4990    -0.1310 h1         1 PT6       0.049200
     39 H112        -3.1800     0.8870     0.9640 h1         1 PT6       0.049200
     40 H121        -4.7530     1.8990    -0.6990 hc         1 PT6       0.066700
     41 H122        -4.5090     0.5300    -1.7760 hc         1 PT6       0.066700
     42 H14         -6.6260     1.6150     1.1460 ha         1 PT6       0.134000
     43 H16         -7.7830    -2.5910     1.0240 h4         1 PT6       0.152000
     44 H15         -8.2920    -0.1880     2.0310 ha         1 PT6       0.136000
@<TRIPOS>BOND
     1     1     2 2   
     2     2     3 1   
     3     2    13 1   
     4     3     4 1   
     5     3    16 1   
     6     4     5 1   
     7     4    26 1   
     8     4    27 1   
     9     5     6 ar  
    10     5    11 ar  
    11     6     7 ar  
    12     6    29 1   
    13     7     8 ar  
    14     7    30 1   
    15     8     9 ar  
    16     8    31 1   
    17     9    10 1   
    18     9    11 ar  
    19    10    32 1   
    20    10    33 1   
    21    11    12 1   
    22    12    34 1   
    23    12    35 1   
    24    12    36 1   
    25    13    14 2   
    26    13    25 1   
    27    14    15 1   
    28    14    17 1   
    29    15    16 2   
    30    15    37 1   
    31    16    28 1   
    32    17    18 1   
    33    18    19 1   
    34    18    38 1   
    35    18    39 1   
    36    19    20 1   
    37    19    40 1   
    38    19    41 1   
    39    20    21 1   
    40    20    24 2   
    41    21    22 1   
    42    22    23 2   
    43    22    43 1   
    44    23    24 1   
    45    23    44 1   
    46    24    42 1   
@<TRIPOS>SUBSTRUCTURE
     1 PT6         1 TEMP              0 ****  ****    0 ROOT
