@<TRIPOS>MOLECULE
PT6
   44    46     1     0     0
SMALL
abcg2


@<TRIPOS>ATOM
      1 O1           1.4200    -0.1160     2.0300 o          1 PT6      -0.560000
      2 C18          0.9770     0.5380     1.0890 c          1 PT6       0.571200
      3 N1           1.8410     1.3010     0.3040 n          1 PT6      -0.281000
      4 C7           3.2610     1.2580     0.6020 c3         1 PT6       0.133300
      5 C6           3.9720     0.0600     0.0070 ca         1 PT6      -0.054300
      6 C5           3.3090    -0.8050    -0.8580 ca         1 PT6      -0.138000
      7 C4           3.9800    -1.8920    -1.3980 ca         1 PT6      -0.070000
      8 C3           5.3030    -2.1300    -1.0780 ca         1 PT6      -0.174000
      9 C2           5.9840    -1.2670    -0.2140 ca         1 PT6       0.288000
     10 N            7.3230    -1.4780     0.0590 nv         1 PT6      -1.072000
     11 C1           5.3170    -0.1520     0.3250 ca         1 PT6      -0.128300
     12 C            6.0930     0.7740     1.2220 c3         1 PT6      -0.045800
     13 C17         -0.4040     0.5830     0.7100 cc         1 PT6      -0.444200
     14 C10         -0.8310     1.3150    -0.3650 cd         1 PT6       0.234100
     15 C9           0.1040     2.0700    -1.1230 cd         1 PT6      -0.315000
     16 C8           1.4040     2.0270    -0.7550 cc         1 PT6      -0.009400
     17 O           -2.0920     1.3890    -0.7860 os         1 PT6      -0.340100
     18 C11         -3.0920     0.6400    -0.1080 c3         1 PT6       0.160600
     19 C12         -4.4080     0.8710    -0.8340 c3         1 PT6      -0.007100
     20 C13         -5.5190     0.1100    -0.1870 cc         1 PT6      -0.216300
     21 S           -5.6810    -1.5950    -0.4010 ss         1 PT6       0.191000
     22 C16         -7.0480    -1.6670     0.6320 cc         1 PT6      -0.234000
     23 C15         -7.3650    -0.4370     1.1200 cd         1 PT6      -0.132000
     24 C14         -6.4870     0.5790     0.6510 cd         1 PT6      -0.124000
     25 H17         -1.0800    -0.0040     1.3150 ha         1 PT6       0.211000
     26 H71C         3.7030     2.1820     0.2250 h1         1 PT6       0.071200
     27 H72C         3.3800     1.2750     1.6840 h1         1 PT6       0.071200
     28 H8           2.1600     2.5780    -1.2960 h4         1 PT6       0.203000
     29 H5           2.2710    -0.6450    -1.1200 ha         1 PT6       0.117000
     30 H4           3.4620    -2.5650    -2.0690 ha         1 PT6       0.112000
     31 H3           5.8200    -2.9870    -1.4940 ha         1 PT6       0.111000
     32 HN1          7.6550    -2.4080    -0.1450 hn         1 PT6       0.444500
     33 HN2          7.6480    -1.1720     0.9620 hn         1 PT6       0.444500
     34 HC1          6.3410     0.3020     2.1770 hc         1 PT6       0.040033
     35 HC2          7.0370     1.0630     0.7570 hc         1 PT6       0.040033
     36 HC3          5.5610     1.6930     1.4540 hc         1 PT6       0.040033
     37 H9          -0.2060     2.6600    -1.9730 ha         1 PT6       0.212000
     38 H111        -2.8310    -0.4230    -0.1100 h1         1 PT6       0.049200
     39 H112        -3.1730     0.9650     0.9340 h1         1 PT6       0.049200
     40 H121        -4.6570     1.9330    -0.8140 hc         1 PT6       0.066700
     41 H122        -4.3010     0.5840    -1.8830 hc         1 PT6       0.066700
     42 H14         -6.5700     1.6220     0.9250 ha         1 PT6       0.134000
     43 H16         -7.5440    -2.6070     0.8180 h4         1 PT6       0.152000
     44 H15         -8.1970    -0.2580     1.7860 ha         1 PT6       0.136000
@<TRIPOS>BOND
     1     1     2 2   
     2     2     3 1   
     3     2    13 1   
     4     3     4 1   
     5     3    16 1   
     6     4     5 1   
     7     4    26 1   
     8     4    27 1   
     9     5     6 ar  
    10     5    11 ar  
    11     6     7 ar  
    12     6    29 1   
    13     7     8 ar  
    14     7    30 1   
    15     8     9 ar  
    16     8    31 1   
    17     9    10 1   
    18     9    11 ar  
    19    10    32 1   
    20    10    33 1   
    21    11    12 1   
    22    12    34 1   
    23    12    35 1   
    24    12    36 1   
    25    13    14 2   
    26    13    25 1   
    27    14    15 1   
    28    14    17 1   
    29    15    16 2   
    30    15    37 1   
    31    16    28 1   
    32    17    18 1   
    33    18    19 1   
    34    18    38 1   
    35    18    39 1   
    36    19    20 1   
    37    19    40 1   
    38    19    41 1   
    39    20    21 1   
    40    20    24 2   
    41    21    22 1   
    42    22    23 2   
    43    22    43 1   
    44    23    24 1   
    45    23    44 1   
    46    24    42 1   
@<TRIPOS>SUBSTRUCTURE
     1 PT6         1 TEMP              0 ****  ****    0 ROOT
