@<TRIPOS>MOLECULE
PTA
   27    26     1     0     0
SMALL
No Charge or Current Charge


@<TRIPOS>ATOM
      1 N            1.1160     1.7980    -1.0160 n8         1 PTA      -0.899800
      2 CA           0.9370     0.4110    -0.4460 c3         1 PTA      -0.032700
      3 CB           2.1250     0.0470     0.4920 c3         1 PTA      -0.035400
      4 CG           3.5430     0.0600    -0.1520 c3         1 PTA      -0.058700
      5 CD1          4.6360    -0.1680     0.9180 c3         1 PTA      -0.076600
      6 CD2          3.6890    -0.9630    -1.3050 c3         1 PTA      -0.076600
      7 P           -0.7220    -0.0170     0.3950 p5         1 PTA       1.055400
      8 O1P         -0.9280     0.8640     1.5880 o          1 PTA      -0.824000
      9 O2P         -0.7670    -1.4710     0.7460 o          1 PTA      -0.824000
     10 CM          -1.9080     0.3960    -0.9140 c3         1 PTA      -0.390600
     11 C           -3.1790    -0.1940    -0.3780 c          1 PTA       0.954600
     12 O           -3.9110     0.5130     0.3000 o          1 PTA      -0.867300
     13 OXT         -3.5090    -1.3080    -0.7620 o          1 PTA      -0.867300
     14 H            0.3440     1.9990    -1.6610 hn         1 PTA       0.327800
     15 H2           0.9980     2.4850    -0.2640 hn         1 PTA       0.327800
     16 HA           0.9520    -0.2840    -1.2950 h1         1 PTA       0.036700
     17 HB2          2.1140     0.7370     1.3460 hc         1 PTA       0.043700
     18 HB3          1.9520    -0.9520     0.9100 hc         1 PTA       0.043700
     19 HG           3.7190     1.0570    -0.5730 hc         1 PTA       0.050700
     20 HD11         4.5290    -1.1560     1.3820 hc         1 PTA       0.013867
     21 HD12         5.6360    -0.1050     0.4720 hc         1 PTA       0.013867
     22 HD13         4.5720     0.5910     1.7070 hc         1 PTA       0.013867
     23 HD21         3.0080    -0.7280    -2.1320 hc         1 PTA       0.013867
     24 HD22         4.7100    -0.9500    -1.7060 hc         1 PTA       0.013867
     25 HD23         3.4720    -1.9790    -0.9560 hc         1 PTA       0.013867
     26 HM1         -1.9000     1.4920    -0.9360 hc         1 PTA       0.013700
     27 HM2         -1.5240    -0.1070    -1.8100 hc         1 PTA       0.013700
@<TRIPOS>BOND
     1     1     2 1   
     2     1    14 1   
     3     1    15 1   
     4     2     3 1   
     5     2     7 1   
     6     2    16 1   
     7     3     4 1   
     8     3    17 1   
     9     3    18 1   
    10     4     5 1   
    11     4     6 1   
    12     4    19 1   
    13     5    20 1   
    14     5    21 1   
    15     5    22 1   
    16     6    23 1   
    17     6    24 1   
    18     6    25 1   
    19     7     8 1   
    20     7     9 1   
    21     7    10 1   
    22    10    11 1   
    23    10    26 1   
    24    10    27 1   
    25    11    12 1   
    26    11    13 1   
@<TRIPOS>SUBSTRUCTURE
     1 PTA         1 TEMP              0 ****  ****    0 ROOT
