@<TRIPOS>MOLECULE
PTA
   27    26     1     0     0
SMALL
bcc


@<TRIPOS>ATOM
      1 N            1.0900     1.6640    -0.9130 n8         1 PTA      -0.899800
      2 CA           0.9710     0.2800    -0.4560 c3         1 PTA      -0.032700
      3 CB           2.1360    -0.0710     0.4670 c3         1 PTA      -0.035400
      4 CG           3.5320     0.1170    -0.1280 c3         1 PTA      -0.058700
      5 CD1          4.5930    -0.1700     0.9310 c3         1 PTA      -0.076600
      6 CD2          3.7540    -0.7590    -1.3570 c3         1 PTA      -0.076600
      7 P           -0.6320    -0.0650     0.4230 p5         1 PTA       1.055400
      8 O1P         -0.7970     1.0010     1.4930 o          1 PTA      -0.824000
      9 O2P         -0.6610    -1.5230     0.8420 o          1 PTA      -0.824000
     10 CM          -1.8850     0.2060    -0.9040 c3         1 PTA      -0.390600
     11 C           -3.3090     0.0600    -0.3550 c          1 PTA       0.954600
     12 O           -3.8570     1.0960     0.0760 o          1 PTA      -0.867300
     13 OXT         -3.8040    -1.0860    -0.3610 o          1 PTA      -0.867300
     14 H            0.4070     1.8470    -1.6380 hn         1 PTA       0.327800
     15 H2           0.8320     2.2730    -0.1420 hn         1 PTA       0.327800
     16 HA           1.0090    -0.3680    -1.3390 h1         1 PTA       0.036700
     17 HB2          2.0550     0.5420     1.3730 hc         1 PTA       0.043700
     18 HB3          2.0250    -1.1100     0.7930 hc         1 PTA       0.043700
     19 HG           3.6320     1.1620    -0.4340 hc         1 PTA       0.050700
     20 HD11         4.5320    -1.2050     1.2790 hc         1 PTA       0.013867
     21 HD12         5.6000    -0.0130     0.5420 hc         1 PTA       0.013867
     22 HD13         4.4710     0.4770     1.8020 hc         1 PTA       0.013867
     23 HD21         3.0670    -0.5090    -2.1660 hc         1 PTA       0.013867
     24 HD22         4.7690    -0.6440    -1.7440 hc         1 PTA       0.013867
     25 HD23         3.6100    -1.8160    -1.1150 hc         1 PTA       0.013867
     26 HM1         -1.7400     1.2050    -1.3230 hc         1 PTA       0.013700
     27 HM2         -1.6940    -0.5230    -1.6970 hc         1 PTA       0.013700
@<TRIPOS>BOND
     1     1     2 1   
     2     1    14 1   
     3     1    15 1   
     4     2     3 1   
     5     2     7 1   
     6     2    16 1   
     7     3     4 1   
     8     3    17 1   
     9     3    18 1   
    10     4     5 1   
    11     4     6 1   
    12     4    19 1   
    13     5    20 1   
    14     5    21 1   
    15     5    22 1   
    16     6    23 1   
    17     6    24 1   
    18     6    25 1   
    19     7     8 1   
    20     7     9 1   
    21     7    10 1   
    22    10    11 1   
    23    10    26 1   
    24    10    27 1   
    25    11    12 1   
    26    11    13 1   
@<TRIPOS>SUBSTRUCTURE
     1 PTA         1 TEMP              0 ****  ****    0 ROOT
