@<TRIPOS>MOLECULE
PTB
   33    34     1     0     0
SMALL
abcg2


@<TRIPOS>ATOM
      1 N            0.1460    -1.3550    -3.6180 n7         1 PTB      -0.873400
      2 CA           0.7000    -0.6500    -2.4800 c5         1 PTB       0.097500
      3 C           -0.2280    -0.7270    -1.2860 c          1 PTB       0.508600
      4 O           -1.3960    -1.0170    -1.3310 o          1 PTB      -0.448100
      5 CB           0.8330     0.8280    -2.9200 c5         1 PTB      -0.088400
      6 CG          -0.1840     0.9280    -4.0500 c5         1 PTB      -0.095400
      7 CD          -0.0490    -0.4260    -4.7290 c5         1 PTB       0.168800
      8 C2           0.3790    -0.3670     0.0190 cc         1 PTB       0.323500
      9 N3           1.6030    -0.0790     0.2840 nd         1 PTB      -0.339000
     10 N4           1.6640     0.1800     1.6200 nd         1 PTB      -0.368000
     11 C5           0.4680     0.0310     2.0850 cc         1 PTB       0.433300
     12 O1          -0.3880    -0.3170     1.1150 os         1 PTB      -0.243000
     13 C6          -0.0320     0.1960     3.4820 c3         1 PTB      -0.067300
     14 C7           1.1300     0.6050     4.3850 c3         1 PTB      -0.086767
     15 C8          -0.6220    -1.1370     3.9620 c3         1 PTB      -0.086767
     16 C9          -1.1160     1.2820     3.4960 c3         1 PTB      -0.086767
     17 HN           0.7190    -2.1440    -3.8770 hn         1 PTB       0.428000
     18 HA           1.6760    -1.0410    -2.1780 h1         1 PTB       0.077700
     19 HB1          0.6650     1.5460    -2.1160 hc         1 PTB       0.059700
     20 HB2          1.8440     0.9950    -3.2960 hc         1 PTB       0.059700
     21 HG1         -1.1930     1.0610    -3.6520 hc         1 PTB       0.058700
     22 HG2          0.0150     1.7560    -4.7280 hc         1 PTB       0.058700
     23 HD1         -0.9340    -0.6890    -5.3130 h1         1 PTB       0.041200
     24 HD2          0.8050    -0.4110    -5.4160 h1         1 PTB       0.041200
     25 H71          0.7620     0.7250     5.4050 hc         1 PTB       0.047256
     26 H72          1.9170    -0.1490     4.4020 hc         1 PTB       0.047256
     27 H73          1.5710     1.5520     4.0750 hc         1 PTB       0.047256
     28 H81          0.1220    -1.9350     3.9370 hc         1 PTB       0.047256
     29 H82         -0.9620    -1.0290     4.9920 hc         1 PTB       0.047256
     30 H83         -1.4790    -1.4460     3.3630 hc         1 PTB       0.047256
     31 H91         -0.7360     2.2330     3.1220 hc         1 PTB       0.047256
     32 H92         -1.9840     0.9990     2.9000 hc         1 PTB       0.047256
     33 H93         -1.4560     1.4370     4.5210 hc         1 PTB       0.047256
@<TRIPOS>BOND
     1     1     2 1   
     2     1     7 1   
     3     1    17 1   
     4     2     3 1   
     5     2     5 1   
     6     2    18 1   
     7     3     4 2   
     8     3     8 1   
     9     5     6 1   
    10     5    19 1   
    11     5    20 1   
    12     6     7 1   
    13     6    21 1   
    14     6    22 1   
    15     7    23 1   
    16     7    24 1   
    17     8     9 2   
    18     8    12 1   
    19     9    10 1   
    20    10    11 2   
    21    11    12 1   
    22    11    13 1   
    23    13    14 1   
    24    13    15 1   
    25    13    16 1   
    26    14    25 1   
    27    14    26 1   
    28    14    27 1   
    29    15    28 1   
    30    15    29 1   
    31    15    30 1   
    32    16    31 1   
    33    16    32 1   
    34    16    33 1   
@<TRIPOS>SUBSTRUCTURE
     1 PTB         1 TEMP              0 ****  ****    0 ROOT
