@<TRIPOS>MOLECULE
PTB
   33    34     1     0     0
SMALL
No Charge or Current Charge


@<TRIPOS>ATOM
      1 N           -0.2700    -1.2330    -3.7830 n7         1 PTB      -0.873400
      2 CA           0.2970    -0.5990    -2.5420 c5         1 PTB       0.097500
      3 C           -0.5850    -0.7040    -1.2370 c          1 PTB       0.508600
      4 O           -1.7500    -1.1020    -1.2410 o          1 PTB      -0.448100
      5 CB           0.5170     0.9040    -2.9390 c5         1 PTB      -0.088400
      6 CG           0.1590     0.9520    -4.4560 c5         1 PTB      -0.095400
      7 CD           0.3850    -0.5120    -4.8880 c5         1 PTB       0.168800
      8 C2           0.1020    -0.3000     0.0280 cc         1 PTB       0.323500
      9 N3           1.3540     0.1250     0.1700 nd         1 PTB      -0.339000
     10 N4           1.5370     0.3740     1.5050 nd         1 PTB      -0.368000
     11 C5           0.3890     0.0860     2.0980 cc         1 PTB       0.433300
     12 O1          -0.5550    -0.3450     1.2220 os         1 PTB      -0.243000
     13 C6           0.0420     0.1850     3.5800 c3         1 PTB      -0.067300
     14 C7           1.2560     0.6920     4.4100 c3         1 PTB      -0.086767
     15 C8          -0.3730    -1.2130     4.1110 c3         1 PTB      -0.086767
     16 C9          -1.1380     1.1750     3.7700 c3         1 PTB      -0.086767
     17 HN          -0.0540    -2.2400    -3.8200 hn         1 PTB       0.428000
     18 HA           1.2710    -1.0540    -2.3090 h1         1 PTB       0.077700
     19 HB1         -0.1100     1.5960    -2.3640 hc         1 PTB       0.059700
     20 HB2          1.5580     1.2010    -2.7650 hc         1 PTB       0.059700
     21 HG1         -0.8870     1.2460    -4.6080 hc         1 PTB       0.058700
     22 HG2          0.7830     1.6560    -5.0170 hc         1 PTB       0.058700
     23 HD1         -0.0730    -0.7400    -5.8610 h1         1 PTB       0.041200
     24 HD2          1.4570    -0.7540    -4.9420 h1         1 PTB       0.041200
     25 H71          1.0030     0.7620     5.4750 hc         1 PTB       0.047256
     26 H72          2.1110     0.0120     4.3130 hc         1 PTB       0.047256
     27 H73          1.5740     1.6880     4.0750 hc         1 PTB       0.047256
     28 H81          0.4400    -1.9380     3.9770 hc         1 PTB       0.047256
     29 H82         -0.6180    -1.1720     5.1790 hc         1 PTB       0.047256
     30 H83         -1.2530    -1.5930     3.5780 hc         1 PTB       0.047256
     31 H91         -0.8760     2.1720     3.3930 hc         1 PTB       0.047256
     32 H92         -2.0310     0.8350     3.2320 hc         1 PTB       0.047256
     33 H93         -1.4030     1.2740     4.8310 hc         1 PTB       0.047256
@<TRIPOS>BOND
     1     1     2 1   
     2     1     7 1   
     3     1    17 1   
     4     2     3 1   
     5     2     5 1   
     6     2    18 1   
     7     3     4 2   
     8     3     8 1   
     9     5     6 1   
    10     5    19 1   
    11     5    20 1   
    12     6     7 1   
    13     6    21 1   
    14     6    22 1   
    15     7    23 1   
    16     7    24 1   
    17     8     9 2   
    18     8    12 1   
    19     9    10 1   
    20    10    11 2   
    21    11    12 1   
    22    11    13 1   
    23    13    14 1   
    24    13    15 1   
    25    13    16 1   
    26    14    25 1   
    27    14    26 1   
    28    14    27 1   
    29    15    28 1   
    30    15    29 1   
    31    15    30 1   
    32    16    31 1   
    33    16    32 1   
    34    16    33 1   
@<TRIPOS>SUBSTRUCTURE
     1 PTB         1 TEMP              0 ****  ****    0 ROOT
