@<TRIPOS>MOLECULE
PTD
   15    14     1     0     0
SMALL
No Charge or Current Charge


@<TRIPOS>ATOM
      1 C1          -0.2540    -0.5160    -2.4830 c          1 PTD       0.575400
      2 C2           0.6140    -0.2750    -1.2450 c3         1 PTD      -0.206400
      3 C3          -0.2470    -0.0140     0.0140 c3         1 PTD      -0.059400
      4 C4           0.6060     0.2090     1.2840 c3         1 PTD      -0.206400
      5 C5          -0.2690     0.4880     2.5100 c          1 PTD       0.575400
      6 O1          -0.7210     0.3920    -3.1620 o          1 PTD      -0.506600
      7 O5          -0.7840    -0.3990     3.1820 o          1 PTD      -0.506600
      8 HC1         -0.4440    -1.5820    -2.7380 h4         1 PTD      -0.019800
      9 HC21         1.2080    -1.1780    -1.0610 hc         1 PTD       0.069950
     10 HC22         1.2650     0.5890    -1.4230 hc         1 PTD       0.069950
     11 HC31        -0.8810     0.8660    -0.1570 hc         1 PTD       0.047200
     12 HC32        -0.9210    -0.8660     0.1750 hc         1 PTD       0.047200
     13 HC41         1.2170    -0.6820     1.4710 hc         1 PTD       0.069950
     14 HC42         1.2410     1.0860     1.1090 hc         1 PTD       0.069950
     15 HC5         -0.4160     1.5610     2.7630 h4         1 PTD      -0.019800
@<TRIPOS>BOND
     1     1     2 1   
     2     1     6 2   
     3     1     8 1   
     4     2     3 1   
     5     2     9 1   
     6     2    10 1   
     7     3     4 1   
     8     3    11 1   
     9     3    12 1   
    10     4     5 1   
    11     4    13 1   
    12     4    14 1   
    13     5     7 2   
    14     5    15 1   
@<TRIPOS>SUBSTRUCTURE
     1 PTD         1 TEMP              0 ****  ****    0 ROOT
