@<TRIPOS>MOLECULE
PTD
   15    14     1     0     0
SMALL
bcc


@<TRIPOS>ATOM
      1 C1          -0.2390    -0.4220    -2.4580 c          1 PTD       0.575400
      2 C2           0.5930    -0.1820    -1.2350 c3         1 PTD      -0.206400
      3 C3          -0.2680    -0.0200     0.0150 c3         1 PTD      -0.059400
      4 C4           0.5830     0.1190     1.2750 c3         1 PTD      -0.206400
      5 C5          -0.2590     0.3980     2.4860 c          1 PTD       0.575400
      6 O1          -0.0990     0.1310    -3.5170 o          1 PTD      -0.506600
      7 O5          -0.1810    -0.1790     3.5370 o          1 PTD      -0.506600
      8 HC1         -1.0250    -1.1910    -2.3220 h4         1 PTD      -0.019800
      9 HC21         1.2380    -1.0620    -1.1160 hc         1 PTD       0.069950
     10 HC22         1.2440     0.6800    -1.3860 hc         1 PTD       0.069950
     11 HC31        -0.9090     0.8590    -0.0960 hc         1 PTD       0.047200
     12 HC32        -0.9360    -0.8800     0.1200 hc         1 PTD       0.047200
     13 HC41         1.1980    -0.7670     1.4400 hc         1 PTD       0.069950
     14 HC42         1.2600     0.9730     1.1560 hc         1 PTD       0.069950
     15 HC5         -0.9870     1.2210     2.3410 h4         1 PTD      -0.019800
@<TRIPOS>BOND
     1     1     2 1   
     2     1     6 2   
     3     1     8 1   
     4     2     3 1   
     5     2     9 1   
     6     2    10 1   
     7     3     4 1   
     8     3    11 1   
     9     3    12 1   
    10     4     5 1   
    11     4    13 1   
    12     4    14 1   
    13     5     7 2   
    14     5    15 1   
@<TRIPOS>SUBSTRUCTURE
     1 PTD         1 TEMP              0 ****  ****    0 ROOT
