@<TRIPOS>MOLECULE
PTF
   19    19     1     0     0
SMALL
No Charge or Current Charge


@<TRIPOS>ATOM
      1 C1          -0.0140    -0.2060     3.7720 c3         1 PTF       0.035900
      2 S2          -0.0100     0.6400     2.1270 ss         1 PTF      -0.431000
      3 C3          -0.0070    -0.8360     1.0110 c3         1 PTF       0.114900
      4 C4          -0.0040    -0.4080    -0.4500 ca         1 PTF      -0.077300
      5 C5          -1.2190    -0.2090    -1.1340 ca         1 PTF      -0.093000
      6 C6          -1.2150     0.1850    -2.4840 ca         1 PTF      -0.111000
      7 C7           0.0030     0.3810    -3.1570 ca         1 PTF      -0.104000
      8 C8           1.2180     0.1850    -2.4790 ca         1 PTF      -0.111000
      9 C9           1.2150    -0.2080    -1.1290 ca         1 PTF      -0.093000
     10 H11         -0.0170     0.5430     4.5740 h1         1 PTF       0.058700
     11 H12         -0.9090    -0.8350     3.8660 h1         1 PTF       0.058700
     12 H13          0.8800    -0.8340     3.8700 h1         1 PTF       0.058700
     13 H31          0.8810    -1.4460     1.2230 h1         1 PTF       0.062700
     14 H32         -0.8960    -1.4460     1.2190 h1         1 PTF       0.062700
     15 H5          -2.1660    -0.3560    -0.6200 ha         1 PTF       0.114500
     16 H6          -2.1560     0.3370    -3.0080 ha         1 PTF       0.113000
     17 H7           0.0050     0.6860    -4.2020 ha         1 PTF       0.112000
     18 H8           2.1610     0.3380    -2.9980 ha         1 PTF       0.113000
     19 H9           2.1590    -0.3560    -0.6090 ha         1 PTF       0.114500
@<TRIPOS>BOND
     1     1     2 1   
     2     1    10 1   
     3     1    11 1   
     4     1    12 1   
     5     2     3 1   
     6     3     4 1   
     7     3    13 1   
     8     3    14 1   
     9     4     5 ar  
    10     4     9 ar  
    11     5     6 ar  
    12     5    15 1   
    13     6     7 ar  
    14     6    16 1   
    15     7     8 ar  
    16     7    17 1   
    17     8     9 ar  
    18     8    18 1   
    19     9    19 1   
@<TRIPOS>SUBSTRUCTURE
     1 PTF         1 TEMP              0 ****  ****    0 ROOT
