@<TRIPOS>MOLECULE
PTF
   19    19     1     0     0
SMALL
bcc


@<TRIPOS>ATOM
      1 C1           0.0560    -0.1830     3.6790 c3         1 PTF      -0.012000
      2 S2           0.0980     0.5930     2.0480 ss         1 PTF      -0.335200
      3 C3          -0.0720    -0.8830     0.9950 c3         1 PTF       0.067000
      4 C4          -0.0420    -0.4510    -0.4400 ca         1 PTF      -0.077300
      5 C5          -1.2230    -0.2750    -1.1550 ca         1 PTF      -0.111000
      6 C6          -1.1930     0.1490    -2.4780 ca         1 PTF      -0.129000
      7 C7           0.0210     0.4100    -3.0980 ca         1 PTF      -0.122000
      8 C8           1.2050     0.2430    -2.3900 ca         1 PTF      -0.129000
      9 C9           1.1730    -0.1830    -1.0690 ca         1 PTF      -0.111000
     10 H11          0.1520     0.6070     4.4220 h1         1 PTF       0.058700
     11 H12         -0.8870    -0.7030     3.8420 h1         1 PTF       0.058700
     12 H13          0.8810    -0.8820     3.8040 h1         1 PTF       0.058700
     13 H31          0.7450    -1.5720     1.2160 h1         1 PTF       0.062700
     14 H32         -1.0120    -1.3830     1.2330 h1         1 PTF       0.062700
     15 H5          -2.1740    -0.4780    -0.6770 ha         1 PTF       0.132500
     16 H6          -2.1200     0.2750    -3.0220 ha         1 PTF       0.131000
     17 H7           0.0460     0.7400    -4.1280 ha         1 PTF       0.130000
     18 H8           2.1560     0.4440    -2.8670 ha         1 PTF       0.131000
     19 H9           2.0990    -0.3130    -0.5230 ha         1 PTF       0.132500
@<TRIPOS>BOND
     1     1     2 1   
     2     1    10 1   
     3     1    11 1   
     4     1    12 1   
     5     2     3 1   
     6     3     4 1   
     7     3    13 1   
     8     3    14 1   
     9     4     5 ar  
    10     4     9 ar  
    11     5     6 ar  
    12     5    15 1   
    13     6     7 ar  
    14     6    16 1   
    15     7     8 ar  
    16     7    17 1   
    17     8     9 ar  
    18     8    18 1   
    19     9    19 1   
@<TRIPOS>SUBSTRUCTURE
     1 PTF         1 TEMP              0 ****  ****    0 ROOT
