@<TRIPOS>MOLECULE
PTG
   50    50     1     0     0
SMALL
abcg2


@<TRIPOS>ATOM
      1 C1           9.6180    -2.4600     0.8450 c3         1 PTG      -0.088100
      2 C2           8.1420    -2.1800     1.0890 c3         1 PTG      -0.075400
      3 C3           7.4320    -1.6290    -0.1430 c3         1 PTG      -0.075400
      4 C4           5.9500    -1.3730     0.0930 c3         1 PTG      -0.073400
      5 C5           5.2420    -0.7950    -1.1380 c3         1 PTG      -0.044200
      6 C6           3.7770    -0.6540    -0.9120 c2         1 PTG      -0.199200
      7 C7           3.1100     0.5070    -0.8490 ce         1 PTG      -0.191000
      8 C8           1.6890     0.5330    -0.5860 ce         1 PTG      -0.099000
      9 C10          0.8850     1.6010    -0.4450 cf         1 PTG      -0.207400
     10 C11          1.2680     3.0290    -0.5210 c          1 PTG       0.573500
     11 O12          2.3750     3.4970    -0.7310 o          1 PTG      -0.539100
     12 C13          0.0340     3.7970    -0.2910 ce         1 PTG      -0.330200
     13 C14         -0.9930     2.9640    -0.0990 c2         1 PTG      -0.131200
     14 C15         -0.5940     1.5200    -0.1590 c5         1 PTG      -0.012300
     15 C16         -0.9300     0.7430     1.1280 c3         1 PTG      -0.016200
     16 C17         -2.3980     0.7020     1.4210 c2         1 PTG      -0.276200
     17 C18         -3.1580    -0.3810     1.2880 c2         1 PTG      -0.167200
     18 C19         -4.6310    -0.4400     1.5360 c3         1 PTG      -0.060200
     19 C20         -5.4210    -0.7650     0.2660 c3         1 PTG      -0.048400
     20 C21         -6.9130    -0.8860     0.5250 c3         1 PTG      -0.206400
     21 C22         -7.7840    -1.2290    -0.6980 c          1 PTG       0.718000
     22 O23         -7.2120    -1.3950    -1.7930 o          1 PTG      -0.741000
     23 O24         -9.0120    -1.3190    -0.4850 o          1 PTG      -0.741000
     24 H1          10.1460    -1.5550     0.5390 hc         1 PTG       0.029700
     25 H1A         10.1080    -2.8390     1.7420 hc         1 PTG       0.029700
     26 H1B          9.7550    -3.2030     0.0560 hc         1 PTG       0.029700
     27 H2           7.6420    -3.0980     1.4130 hc         1 PTG       0.037200
     28 H2A          8.0360    -1.4690     1.9140 hc         1 PTG       0.037200
     29 H3           7.9200    -0.7000    -0.4550 hc         1 PTG       0.036700
     30 H3A          7.5510    -2.3320    -0.9750 hc         1 PTG       0.036700
     31 H4           5.4600    -2.3080     0.3850 hc         1 PTG       0.041200
     32 H4A          5.8230    -0.6830     0.9330 hc         1 PTG       0.041200
     33 H5           5.6820     0.1700    -1.4030 hc         1 PTG       0.046700
     34 H5A          5.4090    -1.4680    -1.9860 hc         1 PTG       0.046700
     35 H6           3.2260    -1.5810    -0.7600 ha         1 PTG       0.165000
     36 H7           3.6380     1.4410    -0.9920 ha         1 PTG       0.200000
     37 H8           1.2280    -0.4480    -0.4830 ha         1 PTG       0.170000
     38 H13         -0.0050     4.8770    -0.2900 ha         1 PTG       0.204000
     39 H14         -2.0140     3.2730     0.0830 ha         1 PTG       0.200000
     40 H15         -1.1260     1.0360    -0.9870 hc         1 PTG       0.087700
     41 H16         -0.5530    -0.2770     1.0200 hc         1 PTG       0.041200
     42 H16A        -0.3870     1.1980     1.9610 hc         1 PTG       0.041200
     43 H17         -2.8590     1.6300     1.7520 ha         1 PTG       0.166000
     44 H18         -2.6940    -1.3070     0.9530 ha         1 PTG       0.158000
     45 H19         -4.8410    -1.2100     2.2870 hc         1 PTG       0.035200
     46 H19A        -4.9770     0.5080     1.9580 hc         1 PTG       0.035200
     47 H20         -5.2310     0.0110    -0.4800 hc         1 PTG       0.040700
     48 H20A        -5.0440    -1.6970    -0.1650 hc         1 PTG       0.040700
     49 H21         -7.0910    -1.6470     1.2940 hc         1 PTG       0.015700
     50 H21A        -7.2890     0.0480     0.9610 hc         1 PTG       0.015700
@<TRIPOS>BOND
     1     1     2 1   
     2     1    24 1   
     3     1    25 1   
     4     1    26 1   
     5     2     3 1   
     6     2    27 1   
     7     2    28 1   
     8     3     4 1   
     9     3    29 1   
    10     3    30 1   
    11     4     5 1   
    12     4    31 1   
    13     4    32 1   
    14     5     6 1   
    15     5    33 1   
    16     5    34 1   
    17     6     7 2   
    18     6    35 1   
    19     7     8 1   
    20     7    36 1   
    21     8     9 2   
    22     8    37 1   
    23     9    10 1   
    24     9    14 1   
    25    10    11 2   
    26    10    12 1   
    27    12    13 2   
    28    12    38 1   
    29    13    14 1   
    30    13    39 1   
    31    14    15 1   
    32    14    40 1   
    33    15    16 1   
    34    15    41 1   
    35    15    42 1   
    36    16    17 2   
    37    16    43 1   
    38    17    18 1   
    39    17    44 1   
    40    18    19 1   
    41    18    45 1   
    42    18    46 1   
    43    19    20 1   
    44    19    47 1   
    45    19    48 1   
    46    20    21 1   
    47    20    49 1   
    48    20    50 1   
    49    21    22 1   
    50    21    23 1   
@<TRIPOS>SUBSTRUCTURE
     1 PTG         1 TEMP              0 ****  ****    0 ROOT
