@<TRIPOS>MOLECULE
PTG
   50    50     1     0     0
SMALL
No Charge or Current Charge


@<TRIPOS>ATOM
      1 C1           9.7940    -1.8560     0.8230 c3         1 PTG      -0.088100
      2 C2           8.2870    -1.6410     1.0560 c3         1 PTG      -0.075400
      3 C3           7.4770    -1.5610    -0.2560 c3         1 PTG      -0.075400
      4 C4           5.9650    -1.3450    -0.0210 c3         1 PTG      -0.073400
      5 C5           5.1530    -1.2640    -1.3310 c3         1 PTG      -0.044200
      6 C6           3.6750    -1.0580    -1.0770 c2         1 PTG      -0.199200
      7 C7           3.0900     0.1240    -0.7860 ce         1 PTG      -0.191000
      8 C8           1.6490     0.2700    -0.5440 ce         1 PTG      -0.099000
      9 C10          0.9900     1.4310    -0.2470 cf         1 PTG      -0.207400
     10 C11          1.4850     2.8130    -0.1070 c          1 PTG       0.573500
     11 O12          2.6320     3.2320    -0.1820 o          1 PTG      -0.539100
     12 C13          0.2750     3.6000     0.1260 ce         1 PTG      -0.330200
     13 C14         -0.8630     2.8690     0.1530 c2         1 PTG      -0.131200
     14 C15         -0.5510     1.3700    -0.0430 c5         1 PTG      -0.012300
     15 C16         -0.9610     0.5100     1.1790 c3         1 PTG      -0.016200
     16 C17         -2.4540     0.5110     1.4430 c2         1 PTG      -0.276200
     17 C18         -3.2800    -0.5240     1.2270 c2         1 PTG      -0.167200
     18 C19         -4.7690    -0.5240     1.5050 c3         1 PTG      -0.060200
     19 C20         -5.6040    -0.6670     0.2140 c3         1 PTG      -0.048400
     20 C21         -7.1310    -0.6700     0.4700 c3         1 PTG      -0.206400
     21 C22         -7.8910    -0.8180    -0.8600 c          1 PTG       0.718000
     22 O23         -8.1340    -1.9450    -1.2630 o          1 PTG      -0.741000
     23 O24         -8.1760     0.1970    -1.4770 o          1 PTG      -0.741000
     24 H1          10.2180    -1.0300     0.2380 hc         1 PTG       0.029700
     25 H1A         10.3260    -1.9060     1.7810 hc         1 PTG       0.029700
     26 H1B          9.9740    -2.7920     0.2810 hc         1 PTG       0.029700
     27 H2           7.9010    -2.4630     1.6720 hc         1 PTG       0.037200
     28 H2A          8.1430    -0.7170     1.6300 hc         1 PTG       0.037200
     29 H3           7.8670    -0.7390    -0.8700 hc         1 PTG       0.036700
     30 H3A          7.6240    -2.4860    -0.8270 hc         1 PTG       0.036700
     31 H4           5.5740    -2.1660     0.5920 hc         1 PTG       0.041200
     32 H4A          5.8170    -0.4200     0.5510 hc         1 PTG       0.041200
     33 H5           5.5440    -0.4450    -1.9490 hc         1 PTG       0.046700
     34 H5A          5.3060    -2.1860    -1.9060 hc         1 PTG       0.046700
     35 H6           3.0790    -1.9700    -1.1450 ha         1 PTG       0.165000
     36 H7           3.7040     1.0240    -0.7210 ha         1 PTG       0.200000
     37 H8           1.0640    -0.6480    -0.6210 ha         1 PTG       0.170000
     38 H13          0.3380     4.6790     0.2480 ha         1 PTG       0.204000
     39 H14         -1.8630     3.2850     0.3040 ha         1 PTG       0.200000
     40 H15         -1.0630     0.9750    -0.9290 hc         1 PTG       0.087700
     41 H16         -0.6210    -0.5210     1.0290 hc         1 PTG       0.041200
     42 H16A        -0.4340     0.8680     2.0730 hc         1 PTG       0.041200
     43 H17         -2.8380     1.4470     1.8550 ha         1 PTG       0.166000
     44 H18         -2.8980    -1.4630     0.8230 ha         1 PTG       0.158000
     45 H19         -5.0140    -1.3470     2.1880 hc         1 PTG       0.035200
     46 H19A        -5.0600     0.4020     2.0160 hc         1 PTG       0.035200
     47 H20         -5.3520     0.1560    -0.4660 hc         1 PTG       0.040700
     48 H20A        -5.3210    -1.5970    -0.2940 hc         1 PTG       0.040700
     49 H21         -7.3240    -1.5330     1.1210 hc         1 PTG       0.015700
     50 H21A        -7.3590     0.2950     0.9380 hc         1 PTG       0.015700
@<TRIPOS>BOND
     1     1     2 1   
     2     1    24 1   
     3     1    25 1   
     4     1    26 1   
     5     2     3 1   
     6     2    27 1   
     7     2    28 1   
     8     3     4 1   
     9     3    29 1   
    10     3    30 1   
    11     4     5 1   
    12     4    31 1   
    13     4    32 1   
    14     5     6 1   
    15     5    33 1   
    16     5    34 1   
    17     6     7 2   
    18     6    35 1   
    19     7     8 1   
    20     7    36 1   
    21     8     9 2   
    22     8    37 1   
    23     9    10 1   
    24     9    14 1   
    25    10    11 2   
    26    10    12 1   
    27    12    13 2   
    28    12    38 1   
    29    13    14 1   
    30    13    39 1   
    31    14    15 1   
    32    14    40 1   
    33    15    16 1   
    34    15    41 1   
    35    15    42 1   
    36    16    17 2   
    37    16    43 1   
    38    17    18 1   
    39    17    44 1   
    40    18    19 1   
    41    18    45 1   
    42    18    46 1   
    43    19    20 1   
    44    19    47 1   
    45    19    48 1   
    46    20    21 1   
    47    20    49 1   
    48    20    50 1   
    49    21    22 1   
    50    21    23 1   
@<TRIPOS>SUBSTRUCTURE
     1 PTG         1 TEMP              0 ****  ****    0 ROOT
