@<TRIPOS>MOLECULE
PTH
   30    30     1     0     0
SMALL
bcc


@<TRIPOS>ATOM
      1 N           41.8110     7.7990    22.7190 n8         1 PTH      -0.890800
      2 CA          42.2050     8.0800    21.3510 c3         1 PTH       0.032500
      3 C           41.1350     7.5860    20.3460 c          1 PTH       0.929600
      4 O           40.3400     6.7110    20.7440 o          1 PTH      -0.867300
      5 OXT         41.1910     8.0830    19.2030 o          1 PTH      -0.867300
      6 CB          43.5690     7.4720    20.9460 c3         1 PTH      -0.035100
      7 CG          44.7000     7.9380    21.8180 ca         1 PTH      -0.174300
      8 CD1         45.3020     9.1780    21.5940 ca         1 PTH      -0.103000
      9 CD2         45.1520     7.1880    22.8970 ca         1 PTH      -0.123000
     10 CE1         46.3220     9.6630    22.3990 ca         1 PTH      -0.196300
     11 CE2         46.1650     7.6600    23.7240 ca         1 PTH      -0.219000
     12 CZ          46.7680     8.8940    23.4890 ca         1 PTH       0.289100
     13 CF          46.9900    10.9890    22.1260 c3         1 PTH       0.171700
     14 OH          47.7930     9.3260    24.2350 os         1 PTH      -0.466500
     15 P           47.5260    10.1580    25.7720 p5         1 PTH       1.265900
     16 O1P         47.0380     9.0620    26.7050 o          1 PTH      -0.904500
     17 O2P         46.4830    11.2160    25.4380 o          1 PTH      -0.904500
     18 O3P         48.9350    10.6630    26.0210 o          1 PTH      -0.904500
     19 OF          46.5180    11.6550    20.9790 oh         1 PTH      -0.620800
     20 H           42.6100     7.8850    23.3350 hn         1 PTH       0.330800
     21 H2          41.5030     6.8350    22.7700 hn         1 PTH       0.330800
     22 HA          42.2960     9.1660    21.2350 h1         1 PTH       0.052700
     23 HB2         43.4930     6.3800    20.9890 hc         1 PTH       0.022700
     24 HB3         43.7710     7.7360    19.9050 hc         1 PTH       0.022700
     25 HD1         44.9540     9.7760    20.7590 ha         1 PTH       0.102000
     26 HD2         44.7140     6.2150    23.0940 ha         1 PTH       0.084000
     27 HE2         46.5120     7.0550    24.5520 ha         1 PTH       0.133000
     28 HF1         46.8130    11.6470    22.9780 h1         1 PTH       0.073200
     29 HF2         48.0770    10.8410    22.0780 h1         1 PTH       0.073200
     30 HOF         46.7960    11.1580    20.2030 ho         1 PTH       0.364000
@<TRIPOS>BOND
     1     1     2 1   
     2     1    20 1   
     3     1    21 1   
     4     2     3 1   
     5     2     6 1   
     6     2    22 1   
     7     3     4 1   
     8     3     5 1   
     9     6     7 1   
    10     6    23 1   
    11     6    24 1   
    12     7     8 ar  
    13     7     9 ar  
    14     8    10 ar  
    15     8    25 1   
    16     9    11 ar  
    17     9    26 1   
    18    10    12 ar  
    19    10    13 1   
    20    11    12 ar  
    21    11    27 1   
    22    12    14 1   
    23    13    19 1   
    24    13    28 1   
    25    13    29 1   
    26    14    15 1   
    27    15    16 1   
    28    15    17 1   
    29    15    18 1   
    30    19    30 1   
@<TRIPOS>SUBSTRUCTURE
     1 PTH         1 TEMP              0 ****  ****    0 ROOT
