@<TRIPOS>MOLECULE
PTH
   30    30     1     0     0
SMALL
No Charge or Current Charge


@<TRIPOS>ATOM
      1 N           41.5870     8.3470    22.4920 n8         1 PTH      -0.890800
      2 CA          42.0810     8.1050    21.0820 c3         1 PTH       0.032500
      3 C           41.0780     7.4130    20.0580 c          1 PTH       0.929600
      4 O           40.5490     6.3470    20.3650 o          1 PTH      -0.867300
      5 OXT         40.7810     8.0100    19.0260 o          1 PTH      -0.867300
      6 CB          43.4350     7.3450    21.1190 c3         1 PTH      -0.035100
      7 CG          44.5050     8.0330    21.9680 ca         1 PTH      -0.174300
      8 CD1         45.0860     9.2370    21.5320 ca         1 PTH      -0.103000
      9 CD2         44.9240     7.4650    23.1850 ca         1 PTH      -0.123000
     10 CE1         46.0770     9.8800    22.3020 ca         1 PTH      -0.196300
     11 CE2         45.9110     8.0980    23.9580 ca         1 PTH      -0.219000
     12 CZ          46.4960     9.3080    23.5260 ca         1 PTH       0.289100
     13 CF          46.6760    11.1890    21.8020 c3         1 PTH       0.171700
     14 OH          47.4710     9.9570    24.2480 os         1 PTH      -0.466500
     15 P           48.1290     9.5430    25.6620 p5         1 PTH       1.265900
     16 O1P         48.8050     8.2200    25.5460 o          1 PTH      -0.904500
     17 O2P         47.0810     9.4800    26.7190 o          1 PTH      -0.904500
     18 O3P         49.1390    10.5700    26.0410 o          1 PTH      -0.904500
     19 OF          47.8840    10.9230    21.0810 oh         1 PTH      -0.620800
     20 H           42.3930     8.6230    23.0630 hn         1 PTH       0.330800
     21 H2          41.2920     7.4490    22.8900 hn         1 PTH       0.330800
     22 HA          42.2940     9.0970    20.6610 h1         1 PTH       0.052700
     23 HB2         43.2620     6.3220    21.4770 hc         1 PTH       0.022700
     24 HB3         43.8030     7.2420    20.0900 hc         1 PTH       0.022700
     25 HD1         44.7680     9.6760    20.5880 ha         1 PTH       0.102000
     26 HD2         44.4850     6.5330    23.5340 ha         1 PTH       0.084000
     27 HE2         46.2150     7.6360    24.8910 ha         1 PTH       0.133000
     28 HF1         45.9490    11.7000    21.1560 h1         1 PTH       0.073200
     29 HF2         46.8700    11.8580    22.6520 h1         1 PTH       0.073200
     30 HOF         48.4550    10.4110    21.6900 ho         1 PTH       0.364000
@<TRIPOS>BOND
     1     1     2 1   
     2     1    20 1   
     3     1    21 1   
     4     2     3 1   
     5     2     6 1   
     6     2    22 1   
     7     3     4 1   
     8     3     5 1   
     9     6     7 1   
    10     6    23 1   
    11     6    24 1   
    12     7     8 ar  
    13     7     9 ar  
    14     8    10 ar  
    15     8    25 1   
    16     9    11 ar  
    17     9    26 1   
    18    10    12 ar  
    19    10    13 1   
    20    11    12 ar  
    21    11    27 1   
    22    12    14 1   
    23    13    19 1   
    24    13    28 1   
    25    13    29 1   
    26    14    15 1   
    27    15    16 1   
    28    15    17 1   
    29    15    18 1   
    30    19    30 1   
@<TRIPOS>SUBSTRUCTURE
     1 PTH         1 TEMP              0 ****  ****    0 ROOT
