@<TRIPOS>MOLECULE
PTI
   64    68     1     0     0
SMALL
abcg2


@<TRIPOS>ATOM
      1 C3          -0.7220    -0.1020     6.9570 c6         1 PTI       0.168800
      2 C6           0.2460    -1.0220     7.6850 c6         1 PTI      -0.074900
      3 C9           1.6050    -0.3540     7.8490 c6         1 PTI      -0.075400
      4 N1          -0.2010     0.3080     5.6640 n3         1 PTI      -0.706600
      5 C12          2.1080     0.1220     6.4930 c6         1 PTI      -0.074900
      6 C15          1.0710     0.9950     5.8020 c6         1 PTI       0.168800
      7 C18         -1.1800     1.0940     4.9430 c3         1 PTI       0.169800
      8 C21         -0.8860     1.2600     3.4680 c3         1 PTI       0.166600
      9 O24         -0.8420    -0.0240     2.8720 os         1 PTI      -0.328100
     10 C25         -0.6460    -0.1160     1.5430 ca         1 PTI       0.149100
     11 C26         -0.6010    -1.4030     1.0080 ca         1 PTI      -0.177500
     12 C28         -0.4090    -1.5860    -0.3510 ca         1 PTI      -0.054000
     13 C30         -0.2530    -0.5050    -1.2110 ca         1 PTI      -0.130300
     14 C31         -0.2980     0.7710    -0.6680 ca         1 PTI      -0.054000
     15 C33         -0.4930     0.9780     0.6900 ca         1 PTI      -0.177500
     16 C35          0.0090    -0.6980    -2.6920 c6         1 PTI       0.334100
     17 N37         -0.8790     0.1500    -3.4650 nh         1 PTI      -0.816400
     18 C38         -0.3830     0.5660    -4.7660 c6         1 PTI       0.217800
     19 C41          0.8620     1.4080    -4.5910 c6         1 PTI      -0.043100
     20 C44          1.8860     0.6260    -3.8250 ca         1 PTI      -0.024300
     21 C45          1.4730    -0.3930    -2.9740 ca         1 PTI      -0.119300
     22 C46          2.4460    -1.1620    -2.3370 ca         1 PTI      -0.062000
     23 C48          3.7950    -0.9200    -2.5110 ca         1 PTI      -0.144000
     24 C50          4.2040     0.1200    -3.3450 ca         1 PTI       0.142100
     25 C51          3.2460     0.8800    -4.0010 ca         1 PTI      -0.208000
     26 O53          5.5290     0.3320    -3.4870 oh         1 PTI      -0.533100
     27 C55         -2.2560    -0.0510    -3.3330 ca         1 PTI       0.305000
     28 C56         -3.1390     0.9640    -3.7280 ca         1 PTI      -0.154500
     29 C58         -4.5090     0.8100    -3.6080 ca         1 PTI      -0.086000
     30 C60         -5.0480    -0.3550    -3.0720 ca         1 PTI      -0.142000
     31 C62         -4.1840    -1.3600    -2.6650 ca         1 PTI      -0.086000
     32 C64         -2.8080    -1.2190    -2.7980 ca         1 PTI      -0.154500
     33 H3C1        -0.9420     0.7710     7.5990 h1         1 PTI       0.027450
     34 H3C2        -1.6720    -0.6180     6.8000 h1         1 PTI       0.027450
     35 H6C1        -0.1770    -1.2930     8.6540 hc         1 PTI       0.046950
     36 H6C2         0.3580    -1.9490     7.1140 hc         1 PTI       0.046950
     37 H9C1         1.5100     0.5020     8.5260 hc         1 PTI       0.038200
     38 H9C2         2.3200    -1.0400     8.3090 hc         1 PTI       0.038200
     39 H121         3.0370     0.6860     6.5980 hc         1 PTI       0.046950
     40 H122         2.3300    -0.7420     5.8600 hc         1 PTI       0.046950
     41 H151         1.4440     1.2730     4.8140 h1         1 PTI       0.027450
     42 H152         0.9540     1.9390     6.3670 h1         1 PTI       0.027450
     43 H181        -1.2990     2.1070     5.3640 h1         1 PTI       0.039700
     44 H182        -2.1540     0.6080     5.0430 h1         1 PTI       0.039700
     45 H211         0.0540     1.7940     3.2970 h1         1 PTI       0.033700
     46 H212        -1.6850     1.8660     3.0260 h1         1 PTI       0.033700
     47 H26         -0.7250    -2.2570     1.6620 ha         1 PTI       0.120500
     48 H28         -0.3880    -2.5960    -0.7460 ha         1 PTI       0.114000
     49 H31         -0.1830     1.6310    -1.3170 ha         1 PTI       0.114000
     50 H33         -0.5230     1.9920     1.0640 ha         1 PTI       0.120500
     51 H35         -0.1380    -1.7640    -2.9340 h1         1 PTI       0.040700
     52 H381        -0.1620    -0.3010    -5.4050 h1         1 PTI       0.042200
     53 H382        -1.1510     1.1420    -5.2780 h1         1 PTI       0.042200
     54 H411         1.2590     1.6980    -5.5660 hc         1 PTI       0.058200
     55 H412         0.6020     2.3310    -4.0640 hc         1 PTI       0.058200
     56 H46          2.1470    -1.9730    -1.6830 ha         1 PTI       0.118000
     57 H48          4.5310    -1.5330    -2.0070 ha         1 PTI       0.129000
     58 H51          3.5510     1.6780    -4.6720 ha         1 PTI       0.110000
     59 H53          5.6860     1.0700    -4.0860 ho         1 PTI       0.463000
     60 H56         -2.7470     1.8970    -4.1140 ha         1 PTI       0.112000
     61 H58         -5.1610     1.6160    -3.9200 ha         1 PTI       0.108500
     62 H60         -6.1180    -0.4720    -2.9690 ha         1 PTI       0.112000
     63 H62         -4.5790    -2.2770    -2.2460 ha         1 PTI       0.108500
     64 H64         -2.1790    -2.0390    -2.4830 ha         1 PTI       0.112000
@<TRIPOS>BOND
     1     1     2 1   
     2     1     4 1   
     3     1    33 1   
     4     1    34 1   
     5     2     3 1   
     6     2    35 1   
     7     2    36 1   
     8     3     5 1   
     9     3    37 1   
    10     3    38 1   
    11     4     6 1   
    12     4     7 1   
    13     5     6 1   
    14     5    39 1   
    15     5    40 1   
    16     6    41 1   
    17     6    42 1   
    18     7     8 1   
    19     7    43 1   
    20     7    44 1   
    21     8     9 1   
    22     8    45 1   
    23     8    46 1   
    24     9    10 1   
    25    10    11 ar  
    26    10    15 ar  
    27    11    12 ar  
    28    11    47 1   
    29    12    13 ar  
    30    12    48 1   
    31    13    14 ar  
    32    13    16 1   
    33    14    15 ar  
    34    14    49 1   
    35    15    50 1   
    36    16    17 1   
    37    16    21 1   
    38    16    51 1   
    39    17    18 1   
    40    17    27 1   
    41    18    19 1   
    42    18    52 1   
    43    18    53 1   
    44    19    20 1   
    45    19    54 1   
    46    19    55 1   
    47    20    21 ar  
    48    20    25 ar  
    49    21    22 ar  
    50    22    23 ar  
    51    22    56 1   
    52    23    24 ar  
    53    23    57 1   
    54    24    25 ar  
    55    24    26 1   
    56    25    58 1   
    57    26    59 1   
    58    27    28 ar  
    59    27    32 ar  
    60    28    29 ar  
    61    28    60 1   
    62    29    30 ar  
    63    29    61 1   
    64    30    31 ar  
    65    30    62 1   
    66    31    32 ar  
    67    31    63 1   
    68    32    64 1   
@<TRIPOS>SUBSTRUCTURE
     1 PTI         1 TEMP              0 ****  ****    0 ROOT
