@<TRIPOS>MOLECULE
PTI
   64    68     1     0     0
SMALL
No Charge or Current Charge


@<TRIPOS>ATOM
      1 C3          -0.8590     0.0270     7.1430 c6         1 PTI       0.168800
      2 C6           0.0580    -0.9490     7.9200 c6         1 PTI      -0.074900
      3 C9           1.5110    -0.4250     7.9670 c6         1 PTI      -0.075400
      4 N1          -0.3530     0.2860     5.7660 n3         1 PTI      -0.706600
      5 C12          2.0100    -0.1220     6.5360 c6         1 PTI      -0.074900
      6 C15          1.0380     0.8290     5.7940 c6         1 PTI       0.168800
      7 C18         -1.3020     1.1250     4.9750 c3         1 PTI       0.169800
      8 C21         -0.9770     1.3140     3.4670 c3         1 PTI       0.166600
      9 O24         -0.9480     0.0240     2.8230 os         1 PTI      -0.328100
     10 C25         -0.6780    -0.1190     1.4790 ca         1 PTI       0.149100
     11 C26         -0.6640    -1.4190     0.9480 ca         1 PTI      -0.177500
     12 C28         -0.3960    -1.6300    -0.4160 ca         1 PTI      -0.054000
     13 C30         -0.1380    -0.5360    -1.2640 ca         1 PTI      -0.130300
     14 C31         -0.1480     0.7690    -0.7320 ca         1 PTI      -0.054000
     15 C33         -0.4170     0.9800     0.6320 ca         1 PTI      -0.177500
     16 C35          0.1580    -0.7590    -2.7550 c6         1 PTI       0.334100
     17 N37         -0.8600    -0.0620    -3.5990 nh         1 PTI      -0.816400
     18 C38         -0.4080     0.3260    -4.9570 c6         1 PTI       0.217800
     19 C41          0.8290     1.2370    -4.8710 c6         1 PTI      -0.043100
     20 C44          1.9410     0.5860    -4.0580 ca         1 PTI      -0.024300
     21 C45          1.6210    -0.3690    -3.0660 ca         1 PTI      -0.119300
     22 C46          2.6640    -0.9800    -2.3390 ca         1 PTI      -0.062000
     23 C48          4.0030    -0.6340    -2.5880 ca         1 PTI      -0.144000
     24 C50          4.3120     0.3220    -3.5640 ca         1 PTI       0.142100
     25 C51          3.2850     0.9310    -4.2990 ca         1 PTI      -0.208000
     26 O53          5.6110     0.6550    -3.8000 oh         1 PTI      -0.533100
     27 C55         -2.2390    -0.1290    -3.3020 ca         1 PTI       0.305000
     28 C56         -3.0420     1.0180    -3.4530 ca         1 PTI      -0.154500
     29 C58         -4.4160     0.9740    -3.1610 ca         1 PTI      -0.086000
     30 C60         -5.0000    -0.2240    -2.7170 ca         1 PTI      -0.142000
     31 C62         -4.2110    -1.3750    -2.5680 ca         1 PTI      -0.086000
     32 C64         -2.8360    -1.3270    -2.8610 ca         1 PTI      -0.154500
     33 H3C1        -0.9330     0.9710     7.7030 h1         1 PTI       0.027450
     34 H3C2        -1.8710    -0.4030     7.1000 h1         1 PTI       0.027450
     35 H6C1        -0.3250    -1.0880     8.9390 hc         1 PTI       0.046950
     36 H6C2         0.0340    -1.9360     7.4380 hc         1 PTI       0.046950
     37 H9C1         1.5570     0.4870     8.5780 hc         1 PTI       0.038200
     38 H9C2         2.1660    -1.1640     8.4490 hc         1 PTI       0.038200
     39 H121         3.0120     0.3270     6.5750 hc         1 PTI       0.046950
     40 H122         2.1080    -1.0580     5.9710 hc         1 PTI       0.046950
     41 H151         1.4200     0.9730     4.7740 h1         1 PTI       0.027450
     42 H152         1.0510     1.8120     6.2870 h1         1 PTI       0.027450
     43 H181        -1.3720     2.1220     5.4290 h1         1 PTI       0.039700
     44 H182        -2.3080     0.6860     5.0350 h1         1 PTI       0.039700
     45 H211        -0.0150     1.8290     3.3550 h1         1 PTI       0.033700
     46 H212        -1.7540     1.9470     3.0180 h1         1 PTI       0.033700
     47 H26         -0.8630    -2.2670     1.5970 ha         1 PTI       0.120500
     48 H28         -0.3890    -2.6440    -0.8110 ha         1 PTI       0.114000
     49 H31          0.0490     1.6190    -1.3810 ha         1 PTI       0.114000
     50 H33         -0.4200     1.9980     1.0090 ha         1 PTI       0.120500
     51 H35          0.0810    -1.8370    -2.9590 h1         1 PTI       0.040700
     52 H381        -0.1590    -0.5740    -5.5390 h1         1 PTI       0.042200
     53 H382        -1.2050     0.8540    -5.5010 h1         1 PTI       0.042200
     54 H411         1.1800     1.4690    -5.8850 hc         1 PTI       0.058200
     55 H412         0.5490     2.1930    -4.4070 hc         1 PTI       0.058200
     56 H46          2.4370    -1.7210    -1.5750 ha         1 PTI       0.118000
     57 H48          4.8000    -1.1070    -2.0200 ha         1 PTI       0.129000
     58 H51          3.5220     1.6700    -5.0610 ha         1 PTI       0.110000
     59 H53          5.6310     1.3320    -4.5090 ho         1 PTI       0.463000
     60 H56         -2.5930     1.9490    -3.7870 ha         1 PTI       0.112000
     61 H58         -5.0260     1.8680    -3.2770 ha         1 PTI       0.108500
     62 H60         -6.0640    -0.2600    -2.4910 ha         1 PTI       0.112000
     63 H62         -4.6620    -2.3050    -2.2280 ha         1 PTI       0.108500
     64 H64         -2.2390    -2.2260    -2.7520 ha         1 PTI       0.112000
@<TRIPOS>BOND
     1     1     2 1   
     2     1     4 1   
     3     1    33 1   
     4     1    34 1   
     5     2     3 1   
     6     2    35 1   
     7     2    36 1   
     8     3     5 1   
     9     3    37 1   
    10     3    38 1   
    11     4     6 1   
    12     4     7 1   
    13     5     6 1   
    14     5    39 1   
    15     5    40 1   
    16     6    41 1   
    17     6    42 1   
    18     7     8 1   
    19     7    43 1   
    20     7    44 1   
    21     8     9 1   
    22     8    45 1   
    23     8    46 1   
    24     9    10 1   
    25    10    11 ar  
    26    10    15 ar  
    27    11    12 ar  
    28    11    47 1   
    29    12    13 ar  
    30    12    48 1   
    31    13    14 ar  
    32    13    16 1   
    33    14    15 ar  
    34    14    49 1   
    35    15    50 1   
    36    16    17 1   
    37    16    21 1   
    38    16    51 1   
    39    17    18 1   
    40    17    27 1   
    41    18    19 1   
    42    18    52 1   
    43    18    53 1   
    44    19    20 1   
    45    19    54 1   
    46    19    55 1   
    47    20    21 ar  
    48    20    25 ar  
    49    21    22 ar  
    50    22    23 ar  
    51    22    56 1   
    52    23    24 ar  
    53    23    57 1   
    54    24    25 ar  
    55    24    26 1   
    56    25    58 1   
    57    26    59 1   
    58    27    28 ar  
    59    27    32 ar  
    60    28    29 ar  
    61    28    60 1   
    62    29    30 ar  
    63    29    61 1   
    64    30    31 ar  
    65    30    62 1   
    66    31    32 ar  
    67    31    63 1   
    68    32    64 1   
@<TRIPOS>SUBSTRUCTURE
     1 PTI         1 TEMP              0 ****  ****    0 ROOT
