@<TRIPOS>MOLECULE
PTL
   16    15     1     0     0
SMALL
No Charge or Current Charge


@<TRIPOS>ATOM
      1 C1          15.3370    17.8670    13.1370 c          1 PTL       0.570900
      2 O1          15.2080    16.7010    12.7790 o          1 PTL      -0.515100
      3 C2          16.6510    18.4370    13.6790 c3         1 PTL      -0.199400
      4 C3          16.8510    18.1330    15.1850 c3         1 PTL      -0.062400
      5 C4          15.7830    18.7740    16.1020 c3         1 PTL      -0.076400
      6 C5          16.0270    18.4910    17.5970 c3         1 PTL      -0.088100
      7 H1          14.4840    18.5800    13.0920 h4         1 PTL      -0.020800
      8 H21         17.4880    18.0030    13.1200 hc         1 PTL       0.061200
      9 H22         16.6350    19.5270    13.5590 hc         1 PTL       0.061200
     10 H31         16.8560    17.0460    15.3370 hc         1 PTL       0.045700
     11 H32         17.8420    18.4970    15.4870 hc         1 PTL       0.045700
     12 H41         15.7710    19.8600    15.9440 hc         1 PTL       0.040700
     13 H42         14.7880    18.3990    15.8320 hc         1 PTL       0.040700
     14 H51         15.2490    18.9640    18.2080 hc         1 PTL       0.032033
     15 H52         16.0120    17.4130    17.7960 hc         1 PTL       0.032033
     16 H53         16.9990    18.8890    17.9140 hc         1 PTL       0.032033
@<TRIPOS>BOND
     1     1     2 2   
     2     1     3 1   
     3     1     7 1   
     4     3     4 1   
     5     3     8 1   
     6     3     9 1   
     7     4     5 1   
     8     4    10 1   
     9     4    11 1   
    10     5     6 1   
    11     5    12 1   
    12     5    13 1   
    13     6    14 1   
    14     6    15 1   
    15     6    16 1   
@<TRIPOS>SUBSTRUCTURE
     1 PTL         1 TEMP              0 ****  ****    0 ROOT
