@<TRIPOS>MOLECULE
PTL
   16    15     1     0     0
SMALL
abcg2


@<TRIPOS>ATOM
      1 C1          15.3880    17.8730    13.0740 c          1 PTL       0.570900
      2 O1          14.7620    16.9560    13.5470 o          1 PTL      -0.515100
      3 C2          16.5260    18.5810    13.7370 c3         1 PTL      -0.199400
      4 C3          16.8040    18.1940    15.1810 c3         1 PTL      -0.062400
      5 C4          15.7740    18.7300    16.1700 c3         1 PTL      -0.076400
      6 C5          16.1000    18.3480    17.6070 c3         1 PTL      -0.088100
      7 H1          15.1550    18.2440    12.0590 h4         1 PTL      -0.020800
      8 H21         17.4000    18.3920    13.1010 hc         1 PTL       0.061200
      9 H22         16.3470    19.6570    13.6370 hc         1 PTL       0.061200
     10 H31         16.8690    17.1050    15.2670 hc         1 PTL       0.045700
     11 H32         17.7890    18.5780    15.4570 hc         1 PTL       0.045700
     12 H41         15.7290    19.8200    16.0810 hc         1 PTL       0.040700
     13 H42         14.7790    18.3610    15.9120 hc         1 PTL       0.040700
     14 H51         15.3650    18.7510    18.3050 hc         1 PTL       0.032033
     15 H52         16.1150    17.2640    17.7320 hc         1 PTL       0.032033
     16 H53         17.0800    18.7270    17.9020 hc         1 PTL       0.032033
@<TRIPOS>BOND
     1     1     2 2   
     2     1     3 1   
     3     1     7 1   
     4     3     4 1   
     5     3     8 1   
     6     3     9 1   
     7     4     5 1   
     8     4    10 1   
     9     4    11 1   
    10     5     6 1   
    11     5    12 1   
    12     5    13 1   
    13     6    14 1   
    14     6    15 1   
    15     6    16 1   
@<TRIPOS>SUBSTRUCTURE
     1 PTL         1 TEMP              0 ****  ****    0 ROOT
