@<TRIPOS>MOLECULE
PTO
   25    26     1     0     0
SMALL
abcg2


@<TRIPOS>ATOM
      1 C1           0.6060    -1.1300     0.0300 c5         1 PTO       0.161000
      2 C2          -0.8840    -1.2470     0.3470 c6         1 PTO      -0.082400
      3 C3          -1.6320     0.0060    -0.0920 c6         1 PTO       0.173300
      4 C4          -0.8710     1.2660     0.3210 c6         1 PTO      -0.082400
      5 C5           0.6190     1.1370     0.0060 c5         1 PTO       0.161000
      6 C6           0.8670     0.7580    -1.4740 c5         1 PTO      -0.110400
      7 C7           0.8570    -0.7850    -1.4580 c5         1 PTO      -0.110400
      8 N8           1.1380     0.0080     0.7770 n3         1 PTO      -0.691600
      9 C9           2.5830     0.0010     0.8720 c3         1 PTO       0.146100
     10 O3          -2.9360    -0.0410     0.4560 oh         1 PTO      -0.659000
     11 H1           1.1120    -2.0500     0.3330 h1         1 PTO       0.064700
     12 H21         -1.3060    -2.1270    -0.1460 hc         1 PTO       0.055450
     13 H22         -1.0020    -1.3870     1.4260 hc         1 PTO       0.055450
     14 H3          -1.6970    -0.0070    -1.1900 h1         1 PTO       0.021700
     15 H41         -0.9900     1.4250     1.3960 hc         1 PTO       0.055450
     16 H42         -1.2890     2.1390    -0.1880 hc         1 PTO       0.055450
     17 H5           1.1310     2.0580     0.2910 h1         1 PTO       0.064700
     18 H61          0.1110     1.1800    -2.1380 hc         1 PTO       0.046700
     19 H62          1.8310     1.1410    -1.8130 hc         1 PTO       0.046700
     20 H71          0.0940    -1.2100    -2.1120 hc         1 PTO       0.046700
     21 H72          1.8150    -1.1880    -1.7910 hc         1 PTO       0.046700
     22 H91          2.9190     0.8870     1.4120 h1         1 PTO       0.031367
     23 H92          2.9080    -0.8720     1.4400 h1         1 PTO       0.031367
     24 H93          3.1150    -0.0180    -0.0900 h1         1 PTO       0.031367
     25 HO3         -3.4300     0.7110     0.1140 ho         1 PTO       0.439000
@<TRIPOS>BOND
     1     1     2 1   
     2     1     7 1   
     3     1     8 1   
     4     1    11 1   
     5     2     3 1   
     6     2    12 1   
     7     2    13 1   
     8     3     4 1   
     9     3    10 1   
    10     3    14 1   
    11     4     5 1   
    12     4    15 1   
    13     4    16 1   
    14     5     6 1   
    15     5     8 1   
    16     5    17 1   
    17     6     7 1   
    18     6    18 1   
    19     6    19 1   
    20     7    20 1   
    21     7    21 1   
    22     8     9 1   
    23     9    22 1   
    24     9    23 1   
    25     9    24 1   
    26    10    25 1   
@<TRIPOS>SUBSTRUCTURE
     1 PTO         1 TEMP              0 ****  ****    0 ROOT
