@<TRIPOS>MOLECULE
PTO
   25    26     1     0     0
SMALL
No Charge or Current Charge


@<TRIPOS>ATOM
      1 C1           0.5990    -1.1680     0.0130 c5         1 PTO       0.161000
      2 C2          -0.9140    -1.2660     0.3650 c6         1 PTO      -0.082400
      3 C3          -1.6900    -0.0050    -0.0760 c6         1 PTO       0.173300
      4 C4          -0.9150     1.2660     0.3410 c6         1 PTO      -0.082400
      5 C5           0.6000     1.1610    -0.0090 c5         1 PTO       0.161000
      6 C6           0.9040     0.7680    -1.4920 c5         1 PTO      -0.110400
      7 C7           0.9040    -0.8030    -1.4770 c5         1 PTO      -0.110400
      8 N8           1.1660     0.0030     0.7350 n3         1 PTO      -0.691600
      9 C9           2.6430     0.0050     0.8810 c3         1 PTO       0.146100
     10 O3          -3.0050    -0.0030     0.4910 oh         1 PTO      -0.659000
     11 H1           1.0810    -2.1120     0.3060 h1         1 PTO       0.064700
     12 H21         -1.3480    -2.1530    -0.1160 hc         1 PTO       0.055450
     13 H22         -1.0200    -1.4150     1.4480 hc         1 PTO       0.055450
     14 H3          -1.7690    -0.0160    -1.1730 h1         1 PTO       0.021700
     15 H41         -1.0190     1.4350     1.4220 hc         1 PTO       0.055450
     16 H42         -1.3460     2.1450    -0.1560 hc         1 PTO       0.055450
     17 H5           1.0820     2.1100     0.2670 h1         1 PTO       0.064700
     18 H61          0.1650     1.1800    -2.1880 hc         1 PTO       0.046700
     19 H62          1.8800     1.1530    -1.8080 hc         1 PTO       0.046700
     20 H71          0.1650    -1.2290    -2.1650 hc         1 PTO       0.046700
     21 H72          1.8800    -1.1950    -1.7860 hc         1 PTO       0.046700
     22 H91          2.9720     0.8970     1.4300 h1         1 PTO       0.031367
     23 H92          2.9720    -0.8780     1.4460 h1         1 PTO       0.031367
     24 H93          3.1550    -0.0050    -0.0900 h1         1 PTO       0.031367
     25 HO3         -3.4710     0.7780     0.1200 ho         1 PTO       0.439000
@<TRIPOS>BOND
     1     1     2 1   
     2     1     7 1   
     3     1     8 1   
     4     1    11 1   
     5     2     3 1   
     6     2    12 1   
     7     2    13 1   
     8     3     4 1   
     9     3    10 1   
    10     3    14 1   
    11     4     5 1   
    12     4    15 1   
    13     4    16 1   
    14     5     6 1   
    15     5     8 1   
    16     5    17 1   
    17     6     7 1   
    18     6    18 1   
    19     6    19 1   
    20     7    20 1   
    21     7    21 1   
    22     8     9 1   
    23     9    22 1   
    24     9    23 1   
    25     9    24 1   
    26    10    25 1   
@<TRIPOS>SUBSTRUCTURE
     1 PTO         1 TEMP              0 ****  ****    0 ROOT
