@<TRIPOS>MOLECULE
PTQ
   40    41     1     0     0
SMALL
No Charge or Current Charge


@<TRIPOS>ATOM
      1 C1          -1.3680     0.7950     0.1710 c6         1 PTQ       0.273300
      2 O1          -1.3720    -0.5890    -0.2290 os         1 PTQ      -0.407000
      3 S1          -0.0210     1.6620    -0.7530 ss         1 PTQ      -0.422000
      4 C2          -2.7730     1.4270    -0.0910 c6         1 PTQ       0.116300
      5 O2          -2.8320     2.8160     0.3140 oh         1 PTQ      -0.730000
      6 C3          -3.8640     0.6010     0.6600 c6         1 PTQ       0.142300
      7 O3          -5.1690     1.1270     0.3560 oh         1 PTQ      -0.668000
      8 C4          -3.7810    -0.9110     0.2880 c6         1 PTQ       0.149300
      9 O4          -4.2220    -1.0860    -1.0740 oh         1 PTQ      -0.709000
     10 C5          -2.3130    -1.4050     0.5170 c6         1 PTQ       0.162300
     11 C6          -2.1100    -2.9040     0.1180 c3         1 PTQ       0.172600
     12 C7           1.4400     0.6840    -0.1770 c3         1 PTQ       0.072600
     13 C8           2.7410     1.2490    -0.7750 c3         1 PTQ      -0.021100
     14 C9           3.9650     0.4680    -0.3160 ca         1 PTQ      -0.084300
     15 C10          4.3890    -0.6700    -1.0300 ca         1 PTQ      -0.104500
     16 C11          5.5150    -1.3960    -0.6030 ca         1 PTQ      -0.109500
     17 C12          6.2230    -0.9890     0.5400 ca         1 PTQ      -0.109000
     18 C13          5.8030     0.1440     1.2570 ca         1 PTQ      -0.109500
     19 C14          4.6770     0.8700     0.8310 ca         1 PTQ      -0.104500
     20 H1          -1.1210     0.8700     1.2410 h2         1 PTQ       0.057700
     21 H2          -2.9650     1.3480    -1.1720 h1         1 PTQ       0.074700
     22 HO2         -2.0590     3.2640    -0.1080 ho         1 PTQ       0.528000
     23 H3          -3.6730     0.6930     1.7410 h1         1 PTQ       0.047700
     24 HO3         -5.0600     2.1070     0.4030 ho         1 PTQ       0.470000
     25 H4          -4.4430    -1.4690     0.9670 h1         1 PTQ       0.048700
     26 HO4         -4.9720    -0.4490    -1.1690 ho         1 PTQ       0.522000
     27 H5          -2.0760    -1.3160     1.5880 h1         1 PTQ       0.048700
     28 HO5         -0.7260    -4.3040     0.0240 ho         1 PTQ       0.506000
     29 H6          -2.8420    -3.5050     0.6730 h1         1 PTQ       0.038700
     30 H6A         -2.3440    -3.0110    -0.9500 h1         1 PTQ       0.038700
     31 H7           1.4910     0.7200     0.9190 h1         1 PTQ       0.070700
     32 H7A          1.3190    -0.3640    -0.4830 h1         1 PTQ       0.070700
     33 H8           2.6690     1.2310    -1.8690 hc         1 PTQ       0.059700
     34 H8A          2.8360     2.3050    -0.4900 hc         1 PTQ       0.059700
     35 H10          3.8450    -0.9940    -1.9150 ha         1 PTQ       0.112500
     36 H11          5.8380    -2.2740    -1.1590 ha         1 PTQ       0.112500
     37 H12          7.0940    -1.5500     0.8700 ha         1 PTQ       0.112000
     38 H13          6.3500     0.4600     2.1440 ha         1 PTQ       0.112500
     39 H14          4.3580     1.7450     1.3940 ha         1 PTQ       0.112500
     40 O5          -0.7750    -3.3860     0.3800 oh         1 PTQ      -0.717000
@<TRIPOS>BOND
     1     1     2 1   
     2     1     3 1   
     3     1     4 1   
     4     1    20 1   
     5     2    10 1   
     6     3    12 1   
     7     4     5 1   
     8     4     6 1   
     9     4    21 1   
    10     5    22 1   
    11     6     7 1   
    12     6     8 1   
    13     6    23 1   
    14     7    24 1   
    15     8     9 1   
    16     8    10 1   
    17     8    25 1   
    18     9    26 1   
    19    10    11 1   
    20    10    27 1   
    21    11    29 1   
    22    11    30 1   
    23    11    40 1   
    24    12    13 1   
    25    12    31 1   
    26    12    32 1   
    27    13    14 1   
    28    13    33 1   
    29    13    34 1   
    30    14    15 ar  
    31    14    19 ar  
    32    15    16 ar  
    33    15    35 1   
    34    16    17 ar  
    35    16    36 1   
    36    17    18 ar  
    37    17    37 1   
    38    18    19 ar  
    39    18    38 1   
    40    19    39 1   
    41    28    40 1   
@<TRIPOS>SUBSTRUCTURE
     1 PTQ         1 TEMP              0 ****  ****    0 ROOT
