@<TRIPOS>MOLECULE
PTQ
   40    41     1     0     0
SMALL
abcg2


@<TRIPOS>ATOM
      1 C1          -1.2630     0.4160     0.0250 c6         1 PTQ       0.273300
      2 O1          -1.5480    -0.8690    -0.4500 os         1 PTQ      -0.407000
      3 S1          -0.0000     1.1660    -1.0220 ss         1 PTQ      -0.422000
      4 C2          -2.5100     1.3100     0.0070 c6         1 PTQ       0.116300
      5 O2          -2.2650     2.5510     0.6170 oh         1 PTQ      -0.730000
      6 C3          -3.6200     0.6300     0.8030 c6         1 PTQ       0.142300
      7 O3          -4.8430     1.3140     0.6970 oh         1 PTQ      -0.668000
      8 C4          -3.8420    -0.7970     0.3130 c6         1 PTQ       0.149300
      9 O4          -4.3510    -0.8300    -0.9980 oh         1 PTQ      -0.709000
     10 C5          -2.5120    -1.5370     0.3440 c6         1 PTQ       0.162300
     11 C6          -2.6300    -2.9640    -0.1460 c3         1 PTQ       0.172600
     12 C7           1.5120     0.4660    -0.2950 c3         1 PTQ       0.072600
     13 C8           2.7330     1.1070    -0.9490 c3         1 PTQ      -0.021100
     14 C9           4.0000     0.5420    -0.3670 ca         1 PTQ      -0.084300
     15 C10          4.5720    -0.6120    -0.8970 ca         1 PTQ      -0.104500
     16 C11          5.7200    -1.1570    -0.3380 ca         1 PTQ      -0.109500
     17 C12          6.3120    -0.5550     0.7650 ca         1 PTQ      -0.109000
     18 C13          5.7480     0.5950     1.3040 ca         1 PTQ      -0.109500
     19 C14          4.6000     1.1370     0.7410 ca         1 PTQ      -0.104500
     20 H1          -0.8710     0.3750     1.0540 h2         1 PTQ       0.057700
     21 H2          -2.8410     1.4290    -1.0350 h1         1 PTQ       0.074700
     22 HO2         -1.6110     3.0300     0.0940 ho         1 PTQ       0.528000
     23 H3          -3.2890     0.5690     1.8530 h1         1 PTQ       0.047700
     24 HO3         -4.7080     2.2340     0.9490 ho         1 PTQ       0.470000
     25 H4          -4.5230    -1.2990     1.0160 h1         1 PTQ       0.048700
     26 HO4         -5.1360    -0.2720    -1.0280 ho         1 PTQ       0.522000
     27 H5          -2.1830    -1.5600     1.3950 h1         1 PTQ       0.048700
     28 HO5         -1.4990    -4.5320    -0.2080 ho         1 PTQ       0.506000
     29 H6          -3.4720    -3.4300     0.3830 h1         1 PTQ       0.038700
     30 H6A         -2.8770    -2.9720    -1.2140 h1         1 PTQ       0.038700
     31 H7           1.5090     0.6580     0.7790 h1         1 PTQ       0.070700
     32 H7A          1.5200    -0.6130    -0.4500 h1         1 PTQ       0.070700
     33 H8           2.7060     0.9320    -2.0260 hc         1 PTQ       0.059700
     34 H8A          2.7000     2.1890    -0.7980 hc         1 PTQ       0.059700
     35 H10          4.1180    -1.0870    -1.7590 ha         1 PTQ       0.112500
     36 H11          6.1540    -2.0520    -0.7650 ha         1 PTQ       0.112500
     37 H12          7.2080    -0.9780     1.2010 ha         1 PTQ       0.112000
     38 H13          6.2050     1.0740     2.1600 ha         1 PTQ       0.112500
     39 H14          4.1680     2.0360     1.1650 ha         1 PTQ       0.112500
     40 O5          -1.4180    -3.6310     0.1160 oh         1 PTQ      -0.717000
@<TRIPOS>BOND
     1     1     2 1   
     2     1     3 1   
     3     1     4 1   
     4     1    20 1   
     5     2    10 1   
     6     3    12 1   
     7     4     5 1   
     8     4     6 1   
     9     4    21 1   
    10     5    22 1   
    11     6     7 1   
    12     6     8 1   
    13     6    23 1   
    14     7    24 1   
    15     8     9 1   
    16     8    10 1   
    17     8    25 1   
    18     9    26 1   
    19    10    11 1   
    20    10    27 1   
    21    11    29 1   
    22    11    30 1   
    23    11    40 1   
    24    12    13 1   
    25    12    31 1   
    26    12    32 1   
    27    13    14 1   
    28    13    33 1   
    29    13    34 1   
    30    14    15 ar  
    31    14    19 ar  
    32    15    16 ar  
    33    15    35 1   
    34    16    17 ar  
    35    16    36 1   
    36    17    18 ar  
    37    17    37 1   
    38    18    19 ar  
    39    18    38 1   
    40    19    39 1   
    41    28    40 1   
@<TRIPOS>SUBSTRUCTURE
     1 PTQ         1 TEMP              0 ****  ****    0 ROOT
