@<TRIPOS>MOLECULE
PTR
   26    26     1     0     0
SMALL
No Charge or Current Charge


@<TRIPOS>ATOM
      1 N           46.5760    11.7980    -0.7650 n8         1 PTR      -1.005200
      2 CA          45.0680    11.8400    -0.8210 c3         1 PTR       0.025500
      3 C           44.3860    13.1350    -1.4480 c          1 PTR       0.734000
      4 O           43.3550    12.9870    -2.0940 o          1 PTR      -0.745500
      5 OXT         44.9730    14.2100    -1.3830 o          1 PTR      -0.745500
      6 CB          44.4500    11.4990     0.5650 c3         1 PTR      -0.017100
      7 CG          44.9040    12.4040     1.7120 ca         1 PTR      -0.169300
      8 CD1         45.9760    12.0210     2.5420 ca         1 PTR      -0.086500
      9 CD2         44.2340    13.6160     1.9680 ca         1 PTR      -0.086500
     10 CE1         46.3760    12.8470     3.6060 ca         1 PTR      -0.198500
     11 CE2         44.6340    14.4400     3.0350 ca         1 PTR      -0.198500
     12 CZ          45.7120    14.0590     3.8620 ca         1 PTR       0.281100
     13 OH          46.1540    14.8120     4.9220 os         1 PTR      -0.463500
     14 P           45.5820    16.2200     5.4650 p5         1 PTR       1.274900
     15 O1P         45.6950    17.2640     4.4080 o          1 PTR      -0.912167
     16 O2P         46.3830    16.6400     6.6490 o          1 PTR      -0.912167
     17 O3P         44.1560    16.0720     5.8740 o          1 PTR      -0.912167
     18 H           46.8600    11.0080    -0.1760 hn         1 PTR       0.378500
     19 H2          46.8870    12.6180    -0.2310 hn         1 PTR       0.378500
     20 HA          44.7840    11.0110    -1.4850 h1         1 PTR       0.006700
     21 HB2         43.3570    11.5270     0.4810 hc         1 PTR       0.007200
     22 HB3         44.6940    10.4570     0.8060 hc         1 PTR       0.007200
     23 HD1         46.4980    11.0840     2.3650 ha         1 PTR       0.071500
     24 HD2         43.3990    13.9190     1.3410 ha         1 PTR       0.071500
     25 HE1         47.2040    12.5450     4.2410 ha         1 PTR       0.109000
     26 HE2         44.0990    15.3680     3.2060 ha         1 PTR       0.109000
@<TRIPOS>BOND
     1     1     2 1   
     2     1    18 1   
     3     1    19 1   
     4     2     3 1   
     5     2     6 1   
     6     2    20 1   
     7     3     4 1   
     8     3     5 1   
     9     6     7 1   
    10     6    21 1   
    11     6    22 1   
    12     7     8 ar  
    13     7     9 ar  
    14     8    10 ar  
    15     8    23 1   
    16     9    11 ar  
    17     9    24 1   
    18    10    12 ar  
    19    10    25 1   
    20    11    12 ar  
    21    11    26 1   
    22    12    13 1   
    23    13    14 1   
    24    14    15 1   
    25    14    16 1   
    26    14    17 1   
@<TRIPOS>SUBSTRUCTURE
     1 PTR         1 TEMP              0 ****  ****    0 ROOT
