@<TRIPOS>MOLECULE
PTR
   26    26     1     0     0
SMALL
abcg2


@<TRIPOS>ATOM
      1 N           46.4110    11.2350    -0.6490 n8         1 PTR      -1.005200
      2 CA          45.0180    11.6390    -0.7140 c3         1 PTR       0.025500
      3 C           44.8520    13.0060    -1.4210 c          1 PTR       0.734000
      4 O           43.6830    13.3050    -1.7450 o          1 PTR      -0.745500
      5 OXT         45.8740    13.6960    -1.5920 o          1 PTR      -0.745500
      6 CB          44.3060    11.6630     0.6560 c3         1 PTR      -0.017100
      7 CG          44.8680    12.6520     1.6380 ca         1 PTR      -0.169300
      8 CD1         45.8830    12.3080     2.5280 ca         1 PTR      -0.086500
      9 CD2         44.3910    13.9610     1.6940 ca         1 PTR      -0.086500
     10 CE1         46.3710    13.2150     3.4610 ca         1 PTR      -0.198500
     11 CE2         44.8710    14.8770     2.6170 ca         1 PTR      -0.198500
     12 CZ          45.8640    14.5150     3.5350 ca         1 PTR       0.281100
     13 OH          46.3370    15.3760     4.4450 os         1 PTR      -0.463500
     14 P           45.2870    15.8560     5.7850 p5         1 PTR       1.274900
     15 O1P         44.1600    16.6340     5.1220 o          1 PTR      -0.912167
     16 O2P         46.2630    16.6890     6.5970 o          1 PTR      -0.912167
     17 O3P         44.8790    14.5220     6.3880 o          1 PTR      -0.912167
     18 H           46.5160    10.4660     0.0030 hn         1 PTR       0.378500
     19 H2          46.9580    12.0030    -0.2810 hn         1 PTR       0.378500
     20 HA          44.4810    10.8970    -1.3180 h1         1 PTR       0.006700
     21 HB2         43.2460    11.8670     0.4950 hc         1 PTR       0.007200
     22 HB3         44.3620    10.6570     1.0840 hc         1 PTR       0.007200
     23 HD1         46.2820    11.3000     2.5180 ha         1 PTR       0.071500
     24 HD2         43.6140    14.2700     1.0040 ha         1 PTR       0.071500
     25 HE1         47.1490    12.9100     4.1520 ha         1 PTR       0.109000
     26 HE2         44.4690    15.8800     2.6440 ha         1 PTR       0.109000
@<TRIPOS>BOND
     1     1     2 1   
     2     1    18 1   
     3     1    19 1   
     4     2     3 1   
     5     2     6 1   
     6     2    20 1   
     7     3     4 1   
     8     3     5 1   
     9     6     7 1   
    10     6    21 1   
    11     6    22 1   
    12     7     8 ar  
    13     7     9 ar  
    14     8    10 ar  
    15     8    23 1   
    16     9    11 ar  
    17     9    24 1   
    18    10    12 ar  
    19    10    25 1   
    20    11    12 ar  
    21    11    26 1   
    22    12    13 1   
    23    13    14 1   
    24    14    15 1   
    25    14    16 1   
    26    14    17 1   
@<TRIPOS>SUBSTRUCTURE
     1 PTR         1 TEMP              0 ****  ****    0 ROOT
