@<TRIPOS>MOLECULE
PTS
   29    30     1     0     0
SMALL
No Charge or Current Charge


@<TRIPOS>ATOM
      1 S1           1.4130    -0.2350    -0.6290 ss         1 PTS       0.509000
      2 C2           0.0430    -0.0340    -1.6940 cc         1 PTS      -0.416500
      3 C3          -1.1470     0.0310    -1.0060 cd         1 PTS      -0.027000
      4 C4          -0.9820    -0.0670     0.4070 cd         1 PTS      -0.062300
      5 C5          -2.1350     0.0100     1.4070 c6         1 PTS       0.226800
      6 C6          -1.7220    -0.3880     2.8580 c6         1 PTS      -0.059400
      7 C7          -0.4240     0.3130     3.3680 c6         1 PTS      -0.253700
      8 S8           1.0140    -0.2560     2.3880 sy         1 PTS       1.067500
      9 C9           0.3460    -0.1990     0.7520 cc         1 PTS      -0.389500
     10 S10          0.2850     0.0280    -3.4310 sy         1 PTS       1.175600
     11 O11          1.6250    -0.4440    -3.7750 o          1 PTS      -0.538000
     12 O12         -0.9310    -0.4170    -4.1050 o          1 PTS      -0.538000
     13 N13          0.2990     1.6400    -3.6620 n8         1 PTS      -1.018100
     14 N14         -3.2410    -0.8630     0.9670 n8         1 PTS      -1.002200
     15 C15         -0.5450     1.8690     3.3920 c3         1 PTS      -0.074100
     16 O16          2.0980     0.7310     2.4690 o          1 PTS      -0.512000
     17 O17          1.2590    -1.6680     2.7030 o          1 PTS      -0.512000
     18 H3          -2.1120     0.1520    -1.4920 ha         1 PTS       0.147000
     19 H5          -2.5150     1.0440     1.4280 h1         1 PTS       0.075700
     20 H61         -1.5860    -1.4780     2.9130 hc         1 PTS       0.074200
     21 H62         -2.5520    -0.1600     3.5400 hc         1 PTS       0.074200
     22 H7          -0.2010    -0.0290     4.3870 h1         1 PTS       0.106700
     23 HN31        -0.3930     1.7270    -4.4010 hn         1 PTS       0.482000
     24 HN32        -0.1880     1.9650    -2.8310 hn         1 PTS       0.482000
     25 HN41        -3.5450    -0.5610     0.0350 hn         1 PTS       0.410500
     26 HN42        -2.8560    -1.7990     0.7970 hn         1 PTS       0.410500
     27 H151         0.3340     2.3300     3.8590 hc         1 PTS       0.053033
     28 H152        -0.6390     2.2900     2.3840 hc         1 PTS       0.053033
     29 H153        -1.4210     2.1880     3.9700 hc         1 PTS       0.053033
@<TRIPOS>BOND
     1     1     2 1   
     2     1     9 1   
     3     2     3 2   
     4     2    10 1   
     5     3     4 1   
     6     3    18 1   
     7     4     5 1   
     8     4     9 2   
     9     5     6 1   
    10     5    14 1   
    11     5    19 1   
    12     6     7 1   
    13     6    20 1   
    14     6    21 1   
    15     7     8 1   
    16     7    15 1   
    17     7    22 1   
    18     8     9 1   
    19     8    16 2   
    20     8    17 2   
    21    10    11 2   
    22    10    12 2   
    23    10    13 1   
    24    13    23 1   
    25    13    24 1   
    26    14    25 1   
    27    14    26 1   
    28    15    27 1   
    29    15    28 1   
    30    15    29 1   
@<TRIPOS>SUBSTRUCTURE
     1 PTS         1 TEMP              0 ****  ****    0 ROOT
