@<TRIPOS>MOLECULE
PTS
   29    30     1     0     0
SMALL
bcc


@<TRIPOS>ATOM
      1 S1           1.3160    -0.0470    -0.6350 ss         1 PTS       0.219200
      2 C2          -0.0740     0.0110    -1.6340 cc         1 PTS      -0.271600
      3 C3          -1.2450    -0.0160    -0.9430 cd         1 PTS      -0.045000
      4 C4          -1.0340    -0.0900     0.4620 cd         1 PTS      -0.062300
      5 C5          -2.1480    -0.0880     1.4860 c6         1 PTS       0.226800
      6 C6          -1.6440    -0.4410     2.8850 c6         1 PTS      -0.059400
      7 C7          -0.4030     0.3320     3.3320 c6         1 PTS      -0.142900
      8 S8           0.9940    -0.2460     2.3560 sy         1 PTS       1.098300
      9 C9           0.3020    -0.1150     0.7430 cc         1 PTS      -0.244600
     10 S10          0.1070     0.1120    -3.3770 sy         1 PTS       1.317200
     11 O11          1.3410    -0.5660    -3.7330 o          1 PTS      -0.608800
     12 O12         -1.1540    -0.3240    -3.9480 o          1 PTS      -0.608800
     13 N13          0.3880     1.7180    -3.5810 n8         1 PTS      -0.907700
     14 N14         -3.2580    -0.9610     1.1600 n8         1 PTS      -0.891800
     15 C15         -0.5330     1.8440     3.2590 c3         1 PTS      -0.074100
     16 O16          2.1240     0.6750     2.4270 o          1 PTS      -0.582800
     17 O17          1.2400    -1.6540     2.6500 o          1 PTS      -0.582800
     18 H3          -2.2190     0.0210    -1.4100 ha         1 PTS       0.165000
     19 H5          -2.5460     0.9320     1.5080 h1         1 PTS       0.075700
     20 H61         -1.4540    -1.5160     2.9470 hc         1 PTS       0.074200
     21 H62         -2.4390    -0.2310     3.6010 hc         1 PTS       0.074200
     22 H7          -0.1410     0.0290     4.3510 h1         1 PTS       0.106700
     23 HN31         0.9200     1.9080    -4.4240 hn         1 PTS       0.426800
     24 HN32        -0.4560     2.2810    -3.5510 hn         1 PTS       0.426800
     25 HN41        -3.7390    -0.6440     0.3290 hn         1 PTS       0.355300
     26 HN42        -2.9290    -1.9000     0.9730 hn         1 PTS       0.355300
     27 H151         0.3360     2.3390     3.6860 hc         1 PTS       0.053033
     28 H152        -0.6670     2.2100     2.2410 hc         1 PTS       0.053033
     29 H153        -1.4060     2.1450     3.8370 hc         1 PTS       0.053033
@<TRIPOS>BOND
     1     1     2 1   
     2     1     9 1   
     3     2     3 2   
     4     2    10 1   
     5     3     4 1   
     6     3    18 1   
     7     4     5 1   
     8     4     9 2   
     9     5     6 1   
    10     5    14 1   
    11     5    19 1   
    12     6     7 1   
    13     6    20 1   
    14     6    21 1   
    15     7     8 1   
    16     7    15 1   
    17     7    22 1   
    18     8     9 1   
    19     8    16 2   
    20     8    17 2   
    21    10    11 2   
    22    10    12 2   
    23    10    13 1   
    24    13    23 1   
    25    13    24 1   
    26    14    25 1   
    27    14    26 1   
    28    15    27 1   
    29    15    28 1   
    30    15    29 1   
@<TRIPOS>SUBSTRUCTURE
     1 PTS         1 TEMP              0 ****  ****    0 ROOT
