@<TRIPOS>MOLECULE
PTU
   24    24     1     0     0
SMALL
abcg2


@<TRIPOS>ATOM
      1 N1          -1.8800     0.7630     0.3580 nv         1 PTU      -1.086200
      2 C           -0.7090     0.2820     0.8200 c2         1 PTU       0.720100
      3 S           -0.6460     0.2400     2.5870 ss         1 PTU      -0.331200
      4 N2           0.3070    -0.0860     0.1410 ne         1 PTU      -0.703100
      5 C1           0.2610    -0.1020    -1.2540 ca         1 PTU       0.164400
      6 C2           1.1160     0.7330    -1.9790 ca         1 PTU      -0.136000
      7 C3           1.1320     0.6960    -3.3660 ca         1 PTU      -0.098000
      8 C4           0.3010    -0.1750    -4.0590 ca         1 PTU      -0.129000
      9 C5          -0.5460    -1.0150    -3.3470 ca         1 PTU      -0.098000
     10 C6          -0.5690    -0.9810    -1.9590 ca         1 PTU      -0.136000
     11 C7           1.0630    -0.2870     2.8970 c3         1 PTU       0.079600
     12 C8           1.2560    -0.4340     4.3970 c3         1 PTU      -0.088100
     13 HN11        -2.6500     0.9590     0.9740 hn         1 PTU       0.491000
     14 HN12        -2.0900     0.7370    -0.6260 hn         1 PTU       0.491000
     15 H21          1.7720     1.4080    -1.4430 ha         1 PTU       0.116500
     16 H31          1.8010     1.3520    -3.9090 ha         1 PTU       0.110000
     17 H41          0.3180    -0.2050    -5.1410 ha         1 PTU       0.112000
     18 H51         -1.1930    -1.7050    -3.8730 ha         1 PTU       0.110000
     19 H61         -1.2210    -1.6550    -1.4160 ha         1 PTU       0.116500
     20 H1'1         1.7400     0.4580     2.4830 h1         1 PTU       0.079200
     21 H1'2         1.2400    -1.2300     2.3840 h1         1 PTU       0.079200
     22 H2'1         2.2850    -0.7310     4.5990 hc         1 PTU       0.045367
     23 H2'2         1.0710     0.5010     4.9250 hc         1 PTU       0.045367
     24 H2'3         0.6010    -1.1980     4.8140 hc         1 PTU       0.045367
@<TRIPOS>BOND
     1     1     2 1   
     2     1    13 1   
     3     1    14 1   
     4     2     3 1   
     5     2     4 2   
     6     3    11 1   
     7     4     5 1   
     8     5     6 ar  
     9     5    10 ar  
    10     6     7 ar  
    11     6    15 1   
    12     7     8 ar  
    13     7    16 1   
    14     8     9 ar  
    15     8    17 1   
    16     9    10 ar  
    17     9    18 1   
    18    10    19 1   
    19    11    12 1   
    20    11    20 1   
    21    11    21 1   
    22    12    22 1   
    23    12    23 1   
    24    12    24 1   
@<TRIPOS>SUBSTRUCTURE
     1 PTU         1 TEMP              0 ****  ****    0 ROOT
