@<TRIPOS>MOLECULE
PTU
   24    24     1     0     0
SMALL
No Charge or Current Charge


@<TRIPOS>ATOM
      1 N1          -1.7720     0.8940     0.3060 nv         1 PTU      -1.086200
      2 C           -0.6390     0.3800     0.8380 c2         1 PTU       0.720100
      3 S           -0.6250     0.3860     2.6120 ss         1 PTU      -0.331200
      4 N2           0.3210    -0.0580     0.1000 ne         1 PTU      -0.703100
      5 C1           0.2870    -0.0900    -1.3070 ca         1 PTU       0.164400
      6 C2           1.0870     0.7980    -2.0470 ca         1 PTU      -0.136000
      7 C3           1.0640     0.7700    -3.4530 ca         1 PTU      -0.098000
      8 C4           0.2430    -0.1530    -4.1230 ca         1 PTU      -0.129000
      9 C5          -0.5520    -1.0490    -3.3880 ca         1 PTU      -0.098000
     10 C6          -0.5270    -1.0190    -1.9820 ca         1 PTU      -0.136000
     11 C7           1.0280    -0.3500     2.9900 c3         1 PTU       0.079600
     12 C8           1.2410    -0.4340     4.5110 c3         1 PTU      -0.088100
     13 HN11        -2.5720     0.8010     0.9180 hn         1 PTU       0.491000
     14 HN12        -1.9240     0.5960    -0.6480 hn         1 PTU       0.491000
     15 H21          1.7240     1.5110    -1.5300 ha         1 PTU       0.116500
     16 H31          1.6830     1.4610    -4.0210 ha         1 PTU       0.110000
     17 H41          0.2250    -0.1760    -5.2100 ha         1 PTU       0.112000
     18 H51         -1.1840    -1.7680    -3.9060 ha         1 PTU       0.110000
     19 H61         -1.1360    -1.7210    -1.4180 ha         1 PTU       0.116500
     20 H1'1         1.8130     0.2710     2.5390 h1         1 PTU       0.079200
     21 H1'2         1.0860    -1.3550     2.5510 h1         1 PTU       0.079200
     22 H2'1         2.2220    -0.8710     4.7350 hc         1 PTU       0.045367
     23 H2'2         1.1970     0.5640     4.9630 hc         1 PTU       0.045367
     24 H2'3         0.4710    -1.0610     4.9750 hc         1 PTU       0.045367
@<TRIPOS>BOND
     1     1     2 1   
     2     1    13 1   
     3     1    14 1   
     4     2     3 1   
     5     2     4 2   
     6     3    11 1   
     7     4     5 1   
     8     5     6 ar  
     9     5    10 ar  
    10     6     7 ar  
    11     6    15 1   
    12     7     8 ar  
    13     7    16 1   
    14     8     9 ar  
    15     8    17 1   
    16     9    10 ar  
    17     9    18 1   
    18    10    19 1   
    19    11    12 1   
    20    11    20 1   
    21    11    21 1   
    22    12    22 1   
    23    12    23 1   
    24    12    24 1   
@<TRIPOS>SUBSTRUCTURE
     1 PTU         1 TEMP              0 ****  ****    0 ROOT
