@<TRIPOS>MOLECULE
PTV
   30    32     1     0     0
SMALL
abcg2


@<TRIPOS>ATOM
      1 C3          12.9210    10.8890    -0.2010 cc         1 PTV      -0.079000
      2 C2          13.4010    11.4860    -1.3870 cc         1 PTV      -0.146000
      3 C1          13.1820    12.8400    -1.4140 cd         1 PTV      -0.242000
      4 S20         12.3950    13.4010    -0.0040 ss         1 PTV       0.296000
      5 C15         12.3430    11.7980     0.6610 cd         1 PTV      -0.312600
      6 C14         11.7460    11.5940     1.9750 c          1 PTV       0.617700
      7 O16         11.2710    12.5210     2.6120 o          1 PTV      -0.506100
      8 C4          11.7900    10.1690     2.5170 c3         1 PTV      -0.073400
      9 S11         10.7160     9.8610     3.9350 ss         1 PTV      -0.240300
     10 C19          9.1520     9.9330     3.1540 cc         1 PTV       0.634300
     11 N13          8.0100     9.7580     3.8680 nc         1 PTV      -0.676000
     12 N18          8.9620    10.1550     1.8610 nd         1 PTV      -0.540800
     13 N17          7.6110    10.1150     1.7570 na         1 PTV      -0.189700
     14 C10          7.0470     9.8790     2.9550 cd         1 PTV       0.492000
     15 C9           5.6120     9.7760     3.2090 ca         1 PTV      -0.095500
     16 C5           5.1520     9.5370     4.5040 ca         1 PTV      -0.135500
     17 C6           3.7850     9.4460     4.7230 ca         1 PTV       0.333400
     18 N12          2.8710     9.5740     3.7560 nb         1 PTV      -0.650000
     19 C7           3.3190     9.8020     2.5180 ca         1 PTV       0.333400
     20 C8           4.6630     9.9100     2.1940 ca         1 PTV      -0.135500
     21 H1          12.9980     9.8330     0.0100 ha         1 PTV       0.134000
     22 H2          13.8850    10.9430    -2.1860 ha         1 PTV       0.138000
     23 H3          13.4440    13.5350    -2.1970 h4         1 PTV       0.152000
     24 H4          11.5730     9.4480     1.7330 h1         1 PTV       0.096700
     25 H5          12.8030     9.9710     2.8770 h1         1 PTV       0.096700
     26 H7           5.8470     9.4250     5.3230 ha         1 PTV       0.133500
     27 H8           3.4100     9.2610     5.7230 h4         1 PTV       0.025100
     28 H9           2.5680     9.9040     1.7420 h4         1 PTV       0.025100
     29 H10          4.9450    10.0950     1.1660 ha         1 PTV       0.133500
     30 H6           7.1750    10.2660     0.8600 hn         1 PTV       0.380000
@<TRIPOS>BOND
     1     1     2 1   
     2     1     5 2   
     3     1    21 1   
     4     2     3 2   
     5     2    22 1   
     6     3     4 1   
     7     3    23 1   
     8     4     5 1   
     9     5     6 1   
    10     6     7 2   
    11     6     8 1   
    12     8     9 1   
    13     8    24 1   
    14     8    25 1   
    15     9    10 1   
    16    10    11 1   
    17    10    12 2   
    18    11    14 2   
    19    12    13 1   
    20    13    14 1   
    21    13    30 1   
    22    14    15 1   
    23    15    16 ar  
    24    15    20 ar  
    25    16    17 ar  
    26    16    26 1   
    27    17    18 ar  
    28    17    27 1   
    29    18    19 ar  
    30    19    20 ar  
    31    19    28 1   
    32    20    29 1   
@<TRIPOS>SUBSTRUCTURE
     1 PTV         1 TEMP              0 ****  ****    0 ROOT
