@<TRIPOS>MOLECULE
PTV
   30    32     1     0     0
SMALL
No Charge or Current Charge


@<TRIPOS>ATOM
      1 C3          13.0800    11.0400    -0.1560 cc         1 PTV      -0.079000
      2 C2          13.5640    11.6720    -1.3260 cc         1 PTV      -0.146000
      3 C1          13.1890    12.9850    -1.4400 cd         1 PTV      -0.242000
      4 S20         12.1960    13.4960    -0.0610 ss         1 PTV       0.296000
      5 C15         12.3250    11.8730     0.6380 cd         1 PTV      -0.312600
      6 C14         11.6870    11.5050     1.9240 c          1 PTV       0.617700
      7 O16         11.0580    12.3370     2.5660 o          1 PTV      -0.506100
      8 C4          11.8540    10.0600     2.4330 c3         1 PTV      -0.073400
      9 S11         10.7210     9.6170     3.8470 ss         1 PTV      -0.240300
     10 C19          9.1130     9.7060     3.1330 cc         1 PTV       0.634300
     11 N13          7.9730     9.6770     3.8650 nc         1 PTV      -0.676000
     12 N18          9.0010     9.7890     1.8210 nd         1 PTV      -0.540800
     13 N17          7.6290     9.8260     1.6980 na         1 PTV      -0.189700
     14 C10          7.0310     9.7570     2.9470 cd         1 PTV       0.492000
     15 C9           5.5820     9.7660     3.2450 ca         1 PTV      -0.095500
     16 C5           5.1010     9.6880     4.5710 ca         1 PTV      -0.135500
     17 C6           3.7170     9.6990     4.8150 ca         1 PTV       0.333400
     18 N12          2.7950     9.7820     3.8280 nb         1 PTV      -0.650000
     19 C7           3.2460     9.8570     2.5550 ca         1 PTV       0.333400
     20 C8           4.6120     9.8520     2.2210 ca         1 PTV      -0.135500
     21 H1          13.3050     9.9990     0.0630 ha         1 PTV       0.134000
     22 H2          14.1760    11.1480    -2.0560 ha         1 PTV       0.138000
     23 H3          13.4230    13.6870    -2.2310 h4         1 PTV       0.152000
     24 H4          11.6670     9.3770     1.5960 h1         1 PTV       0.096700
     25 H5          12.8970     9.9400     2.7470 h1         1 PTV       0.096700
     26 H7           5.7850     9.6190     5.4130 ha         1 PTV       0.133500
     27 H8           3.3340     9.6390     5.8330 h4         1 PTV       0.025100
     28 H9           2.4870     9.9230     1.7760 h4         1 PTV       0.025100
     29 H10          4.8950     9.9160     1.1750 ha         1 PTV       0.133500
     30 H6           7.1510     9.8920     0.8050 hn         1 PTV       0.380000
@<TRIPOS>BOND
     1     1     2 1   
     2     1     5 2   
     3     1    21 1   
     4     2     3 2   
     5     2    22 1   
     6     3     4 1   
     7     3    23 1   
     8     4     5 1   
     9     5     6 1   
    10     6     7 2   
    11     6     8 1   
    12     8     9 1   
    13     8    24 1   
    14     8    25 1   
    15     9    10 1   
    16    10    11 1   
    17    10    12 2   
    18    11    14 2   
    19    12    13 1   
    20    13    14 1   
    21    13    30 1   
    22    14    15 1   
    23    15    16 ar  
    24    15    20 ar  
    25    16    17 ar  
    26    16    26 1   
    27    17    18 ar  
    28    17    27 1   
    29    18    19 ar  
    30    19    20 ar  
    31    19    28 1   
    32    20    29 1   
@<TRIPOS>SUBSTRUCTURE
     1 PTV         1 TEMP              0 ****  ****    0 ROOT
