@<TRIPOS>MOLECULE
PTW
   22    24     1     0     0
SMALL
abcg2


@<TRIPOS>ATOM
      1 N1           0.7240    -0.0050    -1.4110 n3         1 PTW      -0.734600
      2 P1          -1.7070    -0.0100    -0.0200 p3         1 PTW      -0.766700
      3 N2           0.7140    -1.2140     0.7100 n3         1 PTW      -0.734600
      4 N3           0.7010     1.2260     0.6970 n3         1 PTW      -0.734600
      5 C16         -0.7190    -0.0140    -1.6140 c6         1 PTW       0.338367
      6 C17          1.1520     1.1840    -0.6860 c6         1 PTW       0.360333
      7 C18         -0.7450     1.3860     0.7820 c6         1 PTW       0.338367
      8 C19          1.1650    -1.1810    -0.6740 c6         1 PTW       0.360333
      9 C20         -0.7310    -1.3880     0.7950 c6         1 PTW       0.338367
     10 C21          1.1440     0.0110     1.3670 c6         1 PTW       0.360333
     11 H16         -1.0080     0.8570    -2.2090 h1         1 PTW       0.069533
     12 H16A        -0.9990    -0.8950    -2.1960 h1         1 PTW       0.069533
     13 H17          2.2460     1.2130    -0.6930 h2         1 PTW       0.075867
     14 H17A         0.7950     2.0740    -1.2100 h2         1 PTW       0.075867
     15 H18         -1.0330     2.3260     0.3040 h1         1 PTW       0.069533
     16 H18A        -1.0430     1.4620     1.8310 h1         1 PTW       0.069533
     17 H19          0.8180    -2.0810    -1.1890 h2         1 PTW       0.075867
     18 H19A         2.2590    -1.1980    -0.6800 h2         1 PTW       0.075867
     19 H20         -1.0290    -1.4580     1.8450 h1         1 PTW       0.069533
     20 H20A        -1.0090    -2.3360     0.3260 h1         1 PTW       0.069533
     21 H21          0.7860     0.0150     2.4000 h2         1 PTW       0.075867
     22 H21A         2.2380     0.0170     1.3970 h2         1 PTW       0.075867
@<TRIPOS>BOND
     1     1     5 1   
     2     1     6 1   
     3     1     8 1   
     4     2     5 1   
     5     2     7 1   
     6     2     9 1   
     7     3     8 1   
     8     3     9 1   
     9     3    10 1   
    10     4     6 1   
    11     4     7 1   
    12     4    10 1   
    13     5    11 1   
    14     5    12 1   
    15     6    13 1   
    16     6    14 1   
    17     7    15 1   
    18     7    16 1   
    19     8    17 1   
    20     8    18 1   
    21     9    19 1   
    22     9    20 1   
    23    10    21 1   
    24    10    22 1   
@<TRIPOS>SUBSTRUCTURE
     1 PTW         1 TEMP              0 ****  ****    0 ROOT
