@<TRIPOS>MOLECULE
PTW
   22    24     1     0     0
SMALL
No Charge or Current Charge


@<TRIPOS>ATOM
      1 N1           0.7280    -0.0050    -1.3940 n3         1 PTW      -0.734600
      2 P1          -1.7390    -0.0110    -0.0200 p3         1 PTW      -0.766700
      3 N2           0.7180    -1.2000     0.7000 n3         1 PTW      -0.734600
      4 N3           0.7060     1.2110     0.6880 n3         1 PTW      -0.734600
      5 C16         -0.7230    -0.0140    -1.6100 c6         1 PTW       0.338367
      6 C17          1.1760     1.2120    -0.7040 c6         1 PTW       0.360333
      7 C18         -0.7480     1.3820     0.7790 c6         1 PTW       0.338367
      8 C19          1.1890    -1.2090    -0.6910 c6         1 PTW       0.360333
      9 C20         -0.7330    -1.3850     0.7930 c6         1 PTW       0.338367
     10 C21          1.1670     0.0120     1.3990 c6         1 PTW       0.360333
     11 H16         -1.0380     0.8680    -2.1900 h1         1 PTW       0.069533
     12 H16A        -1.0290    -0.9040    -2.1810 h1         1 PTW       0.069533
     13 H17          2.2780     1.2460    -0.7120 h2         1 PTW       0.075867
     14 H17A         0.8110     2.1090    -1.2310 h2         1 PTW       0.075867
     15 H18         -1.0650     2.3170     0.2900 h1         1 PTW       0.069533
     16 H18A        -1.0710     1.4390     1.8300 h1         1 PTW       0.069533
     17 H19          0.8340    -2.1150    -1.2100 h2         1 PTW       0.075867
     18 H19A         2.2910    -1.2320    -0.7000 h2         1 PTW       0.075867
     19 H20         -1.0560    -1.4340     1.8450 h1         1 PTW       0.069533
     20 H20A        -1.0400    -2.3280     0.3140 h1         1 PTW       0.069533
     21 H21          0.7950     0.0150     2.4370 h2         1 PTW       0.075867
     22 H21A         2.2680     0.0180     1.4400 h2         1 PTW       0.075867
@<TRIPOS>BOND
     1     1     5 1   
     2     1     6 1   
     3     1     8 1   
     4     2     5 1   
     5     2     7 1   
     6     2     9 1   
     7     3     8 1   
     8     3     9 1   
     9     3    10 1   
    10     4     6 1   
    11     4     7 1   
    12     4    10 1   
    13     5    11 1   
    14     5    12 1   
    15     6    13 1   
    16     6    14 1   
    17     7    15 1   
    18     7    16 1   
    19     8    17 1   
    20     8    18 1   
    21     9    19 1   
    22     9    20 1   
    23    10    21 1   
    24    10    22 1   
@<TRIPOS>SUBSTRUCTURE
     1 PTW         1 TEMP              0 ****  ****    0 ROOT
