@<TRIPOS>MOLECULE
PTX
   27    27     1     0     0
SMALL
abcg2


@<TRIPOS>ATOM
      1 P8           2.2020     1.7240     0.1480 p5         1 PTX       1.300500
      2 O81          1.3570     2.5400     1.1660 o          1 PTX      -0.898500
      3 O82          3.6690     2.1570     0.1360 o          1 PTX      -0.898500
      4 C7           2.2710    -0.0190     0.8520 c3         1 PTX      -0.246000
      5 N10          0.9420    -0.5940     0.9610 ns         1 PTX      -0.407900
      6 C11          0.4180    -1.4470     0.0810 c          1 PTX       0.493800
      7 O12          1.0410    -2.1480    -0.7050 o          1 PTX      -0.638100
      8 C13         -1.1080    -1.4720     0.0720 ce         1 PTX       0.325300
      9 N16         -1.8400    -2.5070     0.1480 n2         1 PTX      -0.377700
     10 O17         -1.1470    -3.6580     0.3350 os         1 PTX      -0.285000
     11 C18         -2.0440    -4.7440     0.4820 c3         1 PTX       0.165900
     12 C14         -1.7510    -0.1720    -0.1820 cc         1 PTX       0.322700
     13 C15         -2.6340     0.1320    -1.1660 cd         1 PTX      -0.267000
     14 S16         -2.8190     1.8550    -1.2430 ss         1 PTX      -0.297400
     15 C17         -1.6600     2.0210     0.0650 cd         1 PTX       0.811300
     16 N18         -1.1760     3.1850     0.5300 nv         1 PTX      -1.057900
     17 N19         -1.2780     0.8790     0.5410 nc         1 PTX      -0.743000
     18 O1           1.5470     1.5780    -1.2200 o          1 PTX      -0.898500
     19 H71          2.8830    -0.6550     0.2120 h1         1 PTX       0.030200
     20 H72          2.7370    -0.0190     1.8410 h1         1 PTX       0.030200
     21 H10          0.2670     0.0490     1.3630 hn         1 PTX       0.332500
     22 H181        -2.6710    -4.6330     1.3690 h1         1 PTX       0.016033
     23 H182        -2.6830    -4.8610    -0.3960 h1         1 PTX       0.016033
     24 H183        -1.4270    -5.6330     0.5930 h1         1 PTX       0.016033
     25 H15         -3.1250    -0.5220    -1.8680 h4         1 PTX       0.136000
     26 H11         -1.3670     4.0070    -0.0200 hn         1 PTX       0.510500
     27 H12         -0.1620     3.0500     0.8160 hn         1 PTX       0.510500
@<TRIPOS>BOND
     1     1     2 1   
     2     1     3 1   
     3     1     4 1   
     4     1    18 1   
     5     4     5 1   
     6     4    19 1   
     7     4    20 1   
     8     5     6 1   
     9     5    21 1   
    10     6     7 2   
    11     6     8 1   
    12     8     9 2   
    13     8    12 1   
    14     9    10 1   
    15    10    11 1   
    16    11    22 1   
    17    11    23 1   
    18    11    24 1   
    19    12    13 2   
    20    12    17 1   
    21    13    14 1   
    22    13    25 1   
    23    14    15 1   
    24    15    16 1   
    25    15    17 2   
    26    16    26 1   
    27    16    27 1   
@<TRIPOS>SUBSTRUCTURE
     1 PTX         1 TEMP              0 ****  ****    0 ROOT
