@<TRIPOS>MOLECULE
PTX
   27    27     1     0     0
SMALL
No Charge or Current Charge


@<TRIPOS>ATOM
      1 P8           3.1850     1.8850    -0.1010 p5         1 PTX       1.300500
      2 O81          2.1460     2.7860     0.4790 o          1 PTX      -0.898500
      3 O82          4.5290     2.2050     0.4620 o          1 PTX      -0.898500
      4 C7           2.7530     0.1240     0.3430 c3         1 PTX      -0.246000
      5 N10          1.3100    -0.2150     0.2420 ns         1 PTX      -0.407900
      6 C11          0.7410    -1.4630     0.4630 c          1 PTX       0.493800
      7 O12          1.4680    -2.4250     0.7210 o          1 PTX      -0.638100
      8 C13         -0.7720    -1.5900     0.2510 ce         1 PTX       0.325300
      9 N16         -1.2240    -2.7520    -0.1540 n2         1 PTX      -0.377700
     10 O17         -2.3470    -3.2140     0.5640 os         1 PTX      -0.285000
     11 C18         -2.7850    -4.4840     0.0480 c3         1 PTX       0.165900
     12 C14         -1.6490    -0.3830     0.1760 cc         1 PTX       0.322700
     13 C15         -2.9300    -0.3430    -0.3510 cd         1 PTX      -0.267000
     14 S16         -3.6340     1.2640    -0.2490 ss         1 PTX      -0.297400
     15 C17         -2.1480     1.7350     0.5240 cd         1 PTX       0.811300
     16 N18         -1.8420     2.9690     0.8940 nv         1 PTX      -1.057900
     17 N19         -1.2220     0.8360     0.6760 nc         1 PTX      -0.743000
     18 O1           3.2020     2.0070    -1.5880 o          1 PTX      -0.898500
     19 H71          3.3250    -0.5380    -0.3190 h1         1 PTX       0.030200
     20 H72          3.0820    -0.0460     1.3750 h1         1 PTX       0.030200
     21 H10          0.6480     0.5490     0.1000 hn         1 PTX       0.332500
     22 H181        -3.0710    -4.3980    -1.0090 h1         1 PTX       0.016033
     23 H182        -1.9920    -5.2370     0.1360 h1         1 PTX       0.016033
     24 H183        -3.6580    -4.8400     0.6090 h1         1 PTX       0.016033
     25 H15         -3.4860    -1.1610    -0.7940 h4         1 PTX       0.136000
     26 H11         -2.3410     3.7020     0.4080 hn         1 PTX       0.510500
     27 H12         -0.8470     3.1160     1.0040 hn         1 PTX       0.510500
@<TRIPOS>BOND
     1     1     2 1   
     2     1     3 1   
     3     1     4 1   
     4     1    18 1   
     5     4     5 1   
     6     4    19 1   
     7     4    20 1   
     8     5     6 1   
     9     5    21 1   
    10     6     7 2   
    11     6     8 1   
    12     8     9 2   
    13     8    12 1   
    14     9    10 1   
    15    10    11 1   
    16    11    22 1   
    17    11    23 1   
    18    11    24 1   
    19    12    13 2   
    20    12    17 1   
    21    13    14 1   
    22    13    25 1   
    23    14    15 1   
    24    15    16 1   
    25    15    17 2   
    26    16    26 1   
    27    16    27 1   
@<TRIPOS>SUBSTRUCTURE
     1 PTX         1 TEMP              0 ****  ****    0 ROOT
