@<TRIPOS>MOLECULE
PTY
  129   128     1     0     0
SMALL
No Charge or Current Charge


@<TRIPOS>ATOM
      1 C1           5.0150     0.0870    -4.9090 c3         1 PTY       0.165600
      2 C2           9.8390     0.0230     0.7320 c3         1 PTY       0.149800
      3 C3           8.8360     0.2390    -0.4440 c3         1 PTY       0.219600
      4 O4           3.8890     0.6150    -5.6470 os         1 PTY      -0.456100
      5 C5           6.5580     0.7230    -2.9350 c3         1 PTY       0.200600
      6 C6           5.1440     0.8660    -3.5760 c3         1 PTY       0.173300
      7 O7           4.1240     0.3790    -2.6680 os         1 PTY      -0.426100
      8 C8           3.7950     1.1410    -1.5750 c          1 PTY       0.604100
      9 O10          4.1410     2.3070    -1.4310 o          1 PTY      -0.508000
     10 C11          2.6310     0.5160    -0.7970 c3         1 PTY      -0.139400
     11 C12          2.7370     0.7330     0.7340 c3         1 PTY      -0.067400
     12 C13          1.5500     0.1300     1.5200 c3         1 PTY      -0.075400
     13 C14          1.5930     0.4840     3.0240 c3         1 PTY      -0.075400
     14 C15          0.4230    -0.1140     3.8390 c3         1 PTY      -0.073400
     15 C16          0.4550     0.3190     5.3230 c3         1 PTY      -0.075400
     16 C17         -0.6900    -0.2810     6.1690 c3         1 PTY      -0.073400
     17 C18         -0.6600     0.1970     7.6400 c3         1 PTY      -0.075400
     18 C19         -1.7850    -0.4140     8.5040 c3         1 PTY      -0.073400
     19 C20         -1.7670     0.0890     9.9660 c3         1 PTY      -0.075400
     20 C21         -2.8820    -0.5360    10.8340 c3         1 PTY      -0.073400
     21 C22         -2.8830    -0.0220    12.2920 c3         1 PTY      -0.075400
     22 C23         -3.9960    -0.6630    13.1510 c3         1 PTY      -0.073400
     23 C24         -4.0180    -0.1540    14.6100 c3         1 PTY      -0.075400
     24 C25         -5.1310    -0.8160    15.4530 c3         1 PTY      -0.074400
     25 C26         -5.1710    -0.3230    16.9170 c3         1 PTY      -0.074400
     26 C27         -6.2800    -1.0070    17.7470 c3         1 PTY      -0.075400
     27 C28         -6.3300    -0.5260    19.2140 c3         1 PTY      -0.075400
     28 C29         -7.4330    -1.2190    20.0370 c3         1 PTY      -0.088100
     29 C30          3.6270     0.0830    -6.8830 c          1 PTY       0.592100
     30 C31          2.4980     0.8290    -7.6020 c3         1 PTY      -0.140400
     31 O30          4.2860    -0.8080    -7.4030 o          1 PTY      -0.489000
     32 C32          1.1760     0.0240    -7.5980 c3         1 PTY      -0.068400
     33 C33          0.0570     0.7110    -8.4140 c3         1 PTY      -0.075400
     34 C34         -1.2670    -0.0840    -8.4240 c3         1 PTY      -0.075400
     35 C35         -2.3730     0.5820    -9.2760 c3         1 PTY      -0.074400
     36 C36         -3.6980    -0.2130    -9.2680 c3         1 PTY      -0.075400
     37 C37         -4.8070     0.4280   -10.1340 c3         1 PTY      -0.073400
     38 C38         -6.1320    -0.3690   -10.0980 c3         1 PTY      -0.074400
     39 C39         -7.2480     0.2490   -10.9710 c3         1 PTY      -0.074400
     40 C40         -8.5700    -0.5530   -10.9120 c3         1 PTY      -0.074400
     41 C41         -9.6930     0.0450   -11.7900 c3         1 PTY      -0.074400
     42 C42        -11.0100    -0.7640   -11.7140 c3         1 PTY      -0.076400
     43 C43        -12.1400    -0.1810   -12.5910 c3         1 PTY      -0.074400
     44 C44        -13.4490    -0.9920   -12.5050 c3         1 PTY      -0.088100
     45 P1           7.0060    -1.4240    -1.4130 p5         1 PTY       1.395800
     46 O11          8.5230    -1.0390    -1.0280 os         1 PTY      -0.596400
     47 O12          6.8870    -2.8990    -1.6100 o          1 PTY      -0.828500
     48 O13          6.0170    -0.9210    -0.4160 o          1 PTY      -0.828500
     49 O14          6.9190    -0.6660    -2.8350 os         1 PTY      -0.581400
     50 N1          11.1360    -0.5780     0.3160 n8         1 PTY      -0.993200
     51 HC11         5.9410     0.2140    -5.4870 h1         1 PTY       0.078700
     52 HC12         4.8910    -0.9840    -4.6980 h1         1 PTY       0.078700
     53 HC21        10.0480     0.9860     1.2170 h1         1 PTY       0.012700
     54 HC22         9.3770    -0.6400     1.4780 h1         1 PTY       0.012700
     55 HC31         9.2870     0.9030    -1.1950 h1         1 PTY       0.027700
     56 HC32         7.9390     0.7370    -0.0480 h1         1 PTY       0.027700
     57 HC51         7.2840     1.2460    -3.5710 h1         1 PTY       0.040200
     58 HC52         6.5730     1.2200    -1.9560 h1         1 PTY       0.040200
     59 HC6          4.9830     1.9280    -3.8020 h1         1 PTY       0.055700
     60 H111         2.5720    -0.5550    -1.0300 hc         1 PTY       0.070200
     61 H112         1.7050     0.9800    -1.1620 hc         1 PTY       0.070200
     62 H121         2.7880     1.8120     0.9370 hc         1 PTY       0.052700
     63 H122         3.6760     0.2950     1.1000 hc         1 PTY       0.052700
     64 H131         1.5540    -0.9620     1.4010 hc         1 PTY       0.035700
     65 H132         0.6070     0.4970     1.0930 hc         1 PTY       0.035700
     66 H141         1.5790     1.5770     3.1310 hc         1 PTY       0.038700
     67 H142         2.5430     0.1330     3.4500 hc         1 PTY       0.038700
     68 H151         0.4610    -1.2090     3.7770 hc         1 PTY       0.036200
     69 H152        -0.5300     0.2020     3.3920 hc         1 PTY       0.036200
     70 H161         0.4020     1.4150     5.3750 hc         1 PTY       0.037200
     71 H162         1.4170     0.0250     5.7620 hc         1 PTY       0.037200
     72 H171        -0.6220    -1.3760     6.1430 hc         1 PTY       0.036700
     73 H172        -1.6540    -0.0070     5.7210 hc         1 PTY       0.036700
     74 H181        -0.7420     1.2910     7.6630 hc         1 PTY       0.036700
     75 H182         0.3120    -0.0610     8.0820 hc         1 PTY       0.036700
     76 H191        -1.6910    -1.5070     8.4980 hc         1 PTY       0.036700
     77 H192        -2.7570    -0.1730     8.0540 hc         1 PTY       0.036700
     78 H201        -1.8740     1.1810     9.9730 hc         1 PTY       0.036700
     79 H202        -0.7910    -0.1400    10.4150 hc         1 PTY       0.036700
     80 H211        -2.7650    -1.6270    10.8370 hc         1 PTY       0.037200
     81 H212        -3.8560    -0.3200    10.3770 hc         1 PTY       0.037200
     82 H221        -3.0110     1.0690    12.2900 hc         1 PTY       0.037200
     83 H222        -1.9080    -0.2310    12.7500 hc         1 PTY       0.037200
     84 H231        -3.8620    -1.7530    13.1530 hc         1 PTY       0.036700
     85 H232        -4.9690    -0.4610    12.6860 hc         1 PTY       0.036700
     86 H241        -4.1610     0.9340    14.6120 hc         1 PTY       0.036700
     87 H242        -3.0450    -0.3520    15.0770 hc         1 PTY       0.036700
     88 H251        -4.9860    -1.9040    15.4460 hc         1 PTY       0.036700
     89 H252        -6.1030    -0.6200    14.9820 hc         1 PTY       0.036700
     90 H261        -5.3290     0.7640    16.9280 hc         1 PTY       0.036700
     91 H262        -4.1980    -0.5110    17.3890 hc         1 PTY       0.036700
     92 H271        -6.1230    -2.0930    17.7310 hc         1 PTY       0.036700
     93 H272        -7.2520    -0.8170    17.2740 hc         1 PTY       0.036700
     94 H281        -6.4960     0.5590    19.2370 hc         1 PTY       0.036700
     95 H282        -5.3590    -0.7120    19.6910 hc         1 PTY       0.036700
     96 H291        -7.4300    -0.8490    21.0700 hc         1 PTY       0.030700
     97 H292        -8.4220    -1.0230    19.6050 hc         1 PTY       0.030700
     98 H293        -7.2750    -2.3050    20.0620 hc         1 PTY       0.030700
     99 H311         2.3100     1.7820    -7.0930 hc         1 PTY       0.066700
    100 H312         2.8010     1.0050    -8.6400 hc         1 PTY       0.066700
    101 H321         1.3600    -0.9750    -8.0140 hc         1 PTY       0.053700
    102 H322         0.8400    -0.1180    -6.5620 hc         1 PTY       0.053700
    103 H331        -0.1280     1.7120    -8.0030 hc         1 PTY       0.035700
    104 H332         0.4000     0.8490    -9.4480 hc         1 PTY       0.035700
    105 H341        -1.0780    -1.0940    -8.8110 hc         1 PTY       0.039200
    106 H342        -1.6260    -0.1980    -7.3930 hc         1 PTY       0.039200
    107 H351        -2.5570     1.5970    -8.8980 hc         1 PTY       0.035700
    108 H352        -2.0180     0.6840   -10.3100 hc         1 PTY       0.035700
    109 H361        -3.5080    -1.2320    -9.6280 hc         1 PTY       0.037700
    110 H362        -4.0560    -0.3010    -8.2340 hc         1 PTY       0.037700
    111 H371        -4.9920     1.4530    -9.7840 hc         1 PTY       0.036700
    112 H372        -4.4570     0.5010   -11.1720 hc         1 PTY       0.036700
    113 H381        -5.9410    -1.3970   -10.4340 hc         1 PTY       0.037200
    114 H382        -6.4830    -0.4330    -9.0590 hc         1 PTY       0.037200
    115 H391        -7.4360     1.2790   -10.6410 hc         1 PTY       0.036700
    116 H392        -6.9030     0.3020   -12.0120 hc         1 PTY       0.036700
    117 H401        -8.3780    -1.5860   -11.2310 hc         1 PTY       0.036700
    118 H402        -8.9160    -0.5980    -9.8710 hc         1 PTY       0.036700
    119 H411        -9.8870     1.0790   -11.4760 hc         1 PTY       0.036700
    120 H412        -9.3530     0.0840   -12.8340 hc         1 PTY       0.036700
    121 H421       -10.8140    -1.7990   -12.0230 hc         1 PTY       0.036700
    122 H422       -11.3490    -0.8010   -10.6700 hc         1 PTY       0.036700
    123 H431       -12.3420     0.8540   -12.2850 hc         1 PTY       0.036200
    124 H432       -11.8100    -0.1480   -13.6370 hc         1 PTY       0.036200
    125 H441       -14.2200    -0.5450   -13.1440 hc         1 PTY       0.030367
    126 H442       -13.2880    -2.0260   -12.8360 hc         1 PTY       0.030367
    127 H443       -13.8280    -1.0130   -11.4740 hc         1 PTY       0.030367
    128 HN11        11.6540    -0.8740     1.1550 hn         1 PTY       0.389000
    129 HN12        10.9280    -1.4580    -0.1710 hn         1 PTY       0.389000
@<TRIPOS>BOND
     1     1     4 1   
     2     1     6 1   
     3     1    51 1   
     4     1    52 1   
     5     2     3 1   
     6     2    50 1   
     7     2    53 1   
     8     2    54 1   
     9     3    46 1   
    10     3    55 1   
    11     3    56 1   
    12     4    29 1   
    13     5     6 1   
    14     5    49 1   
    15     5    57 1   
    16     5    58 1   
    17     6     7 1   
    18     6    59 1   
    19     7     8 1   
    20     8     9 2   
    21     8    10 1   
    22    10    11 1   
    23    10    60 1   
    24    10    61 1   
    25    11    12 1   
    26    11    62 1   
    27    11    63 1   
    28    12    13 1   
    29    12    64 1   
    30    12    65 1   
    31    13    14 1   
    32    13    66 1   
    33    13    67 1   
    34    14    15 1   
    35    14    68 1   
    36    14    69 1   
    37    15    16 1   
    38    15    70 1   
    39    15    71 1   
    40    16    17 1   
    41    16    72 1   
    42    16    73 1   
    43    17    18 1   
    44    17    74 1   
    45    17    75 1   
    46    18    19 1   
    47    18    76 1   
    48    18    77 1   
    49    19    20 1   
    50    19    78 1   
    51    19    79 1   
    52    20    21 1   
    53    20    80 1   
    54    20    81 1   
    55    21    22 1   
    56    21    82 1   
    57    21    83 1   
    58    22    23 1   
    59    22    84 1   
    60    22    85 1   
    61    23    24 1   
    62    23    86 1   
    63    23    87 1   
    64    24    25 1   
    65    24    88 1   
    66    24    89 1   
    67    25    26 1   
    68    25    90 1   
    69    25    91 1   
    70    26    27 1   
    71    26    92 1   
    72    26    93 1   
    73    27    28 1   
    74    27    94 1   
    75    27    95 1   
    76    28    96 1   
    77    28    97 1   
    78    28    98 1   
    79    29    30 1   
    80    29    31 2   
    81    30    32 1   
    82    30    99 1   
    83    30   100 1   
    84    32    33 1   
    85    32   101 1   
    86    32   102 1   
    87    33    34 1   
    88    33   103 1   
    89    33   104 1   
    90    34    35 1   
    91    34   105 1   
    92    34   106 1   
    93    35    36 1   
    94    35   107 1   
    95    35   108 1   
    96    36    37 1   
    97    36   109 1   
    98    36   110 1   
    99    37    38 1   
   100    37   111 1   
   101    37   112 1   
   102    38    39 1   
   103    38   113 1   
   104    38   114 1   
   105    39    40 1   
   106    39   115 1   
   107    39   116 1   
   108    40    41 1   
   109    40   117 1   
   110    40   118 1   
   111    41    42 1   
   112    41   119 1   
   113    41   120 1   
   114    42    43 1   
   115    42   121 1   
   116    42   122 1   
   117    43    44 1   
   118    43   123 1   
   119    43   124 1   
   120    44   125 1   
   121    44   126 1   
   122    44   127 1   
   123    45    46 1   
   124    45    47 1   
   125    45    48 1   
   126    45    49 1   
   127    50   128 1   
   128    50   129 1   
@<TRIPOS>SUBSTRUCTURE
     1 PTY         1 TEMP              0 ****  ****    0 ROOT
