@<TRIPOS>MOLECULE
PTY
  129   128     1     0     0
SMALL
bcc


@<TRIPOS>ATOM
      1 C1           4.5400     1.2700    -4.1210 c3         1 PTY       0.142400
      2 C2           9.2330    -3.4570    -2.7170 c3         1 PTY       0.149800
      3 C3           9.5040    -2.0310    -2.2950 c3         1 PTY       0.196400
      4 O4           3.1430     1.4380    -4.3590 os         1 PTY      -0.432900
      5 C5           6.3360     1.8990    -2.4920 c3         1 PTY       0.177400
      6 C6           4.8470     1.8930    -2.7780 c3         1 PTY       0.150100
      7 O7           4.1340     1.1290    -1.7990 os         1 PTY      -0.402900
      8 C8           3.7730     1.7110    -0.6580 c          1 PTY       0.653100
      9 O10          4.0300     2.8570    -0.3840 o          1 PTY      -0.557000
     10 C11          3.0080     0.7610     0.2220 c3         1 PTY      -0.139400
     11 C12          2.6630     1.3390     1.5850 c3         1 PTY      -0.067400
     12 C13          1.8820     0.3560     2.4480 c3         1 PTY      -0.075400
     13 C14          1.5390     0.9330     3.8160 c3         1 PTY      -0.075400
     14 C15          0.7350    -0.0110     4.7000 c3         1 PTY      -0.073400
     15 C16          0.4040     0.6010     6.0560 c3         1 PTY      -0.075400
     16 C17         -0.4240    -0.3030     6.9600 c3         1 PTY      -0.073400
     17 C18         -0.7470     0.3480     8.3000 c3         1 PTY      -0.075400
     18 C19         -1.5900    -0.5180     9.2250 c3         1 PTY      -0.073400
     19 C20         -1.9080     0.1710    10.5460 c3         1 PTY      -0.075400
     20 C21         -2.7590    -0.6660    11.4920 c3         1 PTY      -0.073400
     21 C22         -3.0710     0.0540    12.7990 c3         1 PTY      -0.075400
     22 C23         -3.9260    -0.7620    13.7600 c3         1 PTY      -0.073400
     23 C24         -4.2320    -0.0220    15.0560 c3         1 PTY      -0.075400
     24 C25         -5.0870    -0.8240    16.0290 c3         1 PTY      -0.074400
     25 C26         -5.3880    -0.0720    17.3200 c3         1 PTY      -0.074400
     26 C27         -6.2430    -0.8680    18.2980 c3         1 PTY      -0.075400
     27 C28         -6.5410    -0.1160    19.5890 c3         1 PTY      -0.075400
     28 C29         -7.3960    -0.9210    20.5580 c3         1 PTY      -0.088100
     29 C30          2.6530     0.9670    -5.5040 c          1 PTY       0.641100
     30 C31          1.1670     1.1810    -5.6000 c3         1 PTY      -0.140400
     31 O30          3.3370     0.4330    -6.3400 o          1 PTY      -0.538000
     32 C32          0.5730     0.7190    -6.9210 c3         1 PTY      -0.068400
     33 C33         -0.9390     0.8960    -6.9660 c3         1 PTY      -0.075400
     34 C34         -1.5410     0.4250    -8.2840 c3         1 PTY      -0.075400
     35 C35         -3.0570     0.5590    -8.3430 c3         1 PTY      -0.074400
     36 C36         -3.6450     0.0750    -9.6630 c3         1 PTY      -0.075400
     37 C37         -5.1630     0.1830    -9.7300 c3         1 PTY      -0.073400
     38 C38         -5.7380    -0.3080   -11.0520 c3         1 PTY      -0.074400
     39 C39         -7.2570    -0.2160   -11.1250 c3         1 PTY      -0.074400
     40 C40         -7.8240    -0.7110   -12.4500 c3         1 PTY      -0.074400
     41 C41         -9.3430    -0.6240   -12.5280 c3         1 PTY      -0.074400
     42 C42         -9.9050    -1.1200   -13.8550 c3         1 PTY      -0.076400
     43 C43        -11.4240    -1.0310   -13.9410 c3         1 PTY      -0.074400
     44 C44        -11.9700    -1.5300   -15.2720 c3         1 PTY      -0.088100
     45 P1           8.4460     0.3650    -2.3610 p5         1 PTY       1.395800
     46 O11          8.3350    -1.2590    -2.5250 os         1 PTY      -0.573200
     47 O12          8.8700     0.7220    -0.9690 o          1 PTY      -0.828500
     48 O13          9.1600     0.9710    -3.5290 o          1 PTY      -0.828500
     49 O14          6.8220     0.5780    -2.5290 os         1 PTY      -0.558200
     50 N1           9.0080    -3.5510    -4.1500 n8         1 PTY      -0.882800
     51 HC11         5.1220     1.7810    -4.8910 h1         1 PTY       0.078700
     52 HC12         4.8040     0.2110    -4.1390 h1         1 PTY       0.078700
     53 HC21        10.1180    -4.0450    -2.4620 h1         1 PTY       0.012700
     54 HC22         8.4100    -3.8570    -2.1060 h1         1 PTY       0.012700
     55 HC31        10.3520    -1.6390    -2.8690 h1         1 PTY       0.027700
     56 HC32         9.7790    -2.0090    -1.2360 h1         1 PTY       0.027700
     57 HC51         6.8180     2.5320    -3.2470 h1         1 PTY       0.040200
     58 HC52         6.5200     2.3650    -1.5190 h1         1 PTY       0.040200
     59 HC6          4.5050     2.9320    -2.7730 h1         1 PTY       0.055700
     60 H111         3.5930    -0.1580     0.3290 hc         1 PTY       0.070200
     61 H112         2.0980     0.4650    -0.3110 hc         1 PTY       0.070200
     62 H121         2.0770     2.2530     1.4630 hc         1 PTY       0.052700
     63 H122         3.5800     1.6280     2.1060 hc         1 PTY       0.052700
     64 H131         2.4600    -0.5660     2.5730 hc         1 PTY       0.035700
     65 H132         0.9600     0.0670     1.9320 hc         1 PTY       0.035700
     66 H141         0.9790     1.8650     3.6820 hc         1 PTY       0.038700
     67 H142         2.4650     1.2120     4.3310 hc         1 PTY       0.038700
     68 H151         1.2920    -0.9430     4.8440 hc         1 PTY       0.036200
     69 H152        -0.1930    -0.2890     4.1890 hc         1 PTY       0.036200
     70 H161        -0.1340     1.5430     5.9010 hc         1 PTY       0.037200
     71 H162         1.3350     0.8700     6.5680 hc         1 PTY       0.037200
     72 H171         0.1120    -1.2440     7.1310 hc         1 PTY       0.036700
     73 H172        -1.3560    -0.5750     6.4520 hc         1 PTY       0.036700
     74 H181        -1.2690     1.2950     8.1190 hc         1 PTY       0.036700
     75 H182         0.1880     0.6150     8.8060 hc         1 PTY       0.036700
     76 H191        -1.0690    -1.4620     9.4220 hc         1 PTY       0.036700
     77 H192        -2.5250    -0.7890     8.7220 hc         1 PTY       0.036700
     78 H201        -2.4210     1.1180    10.3420 hc         1 PTY       0.036700
     79 H202        -0.9710     0.4410    11.0470 hc         1 PTY       0.036700
     80 H211        -2.2460    -1.6090    11.7090 hc         1 PTY       0.037200
     81 H212        -3.6960    -0.9400    10.9940 hc         1 PTY       0.037200
     82 H221        -3.5800     0.9990    12.5760 hc         1 PTY       0.037200
     83 H222        -2.1320     0.3290    13.2930 hc         1 PTY       0.037200
     84 H231        -3.4170    -1.7040    13.9910 hc         1 PTY       0.036700
     85 H232        -4.8650    -1.0390    13.2680 hc         1 PTY       0.036700
     86 H241        -4.7390     0.9210    14.8220 hc         1 PTY       0.036700
     87 H242        -3.2910     0.2560    15.5450 hc         1 PTY       0.036700
     88 H251        -4.5800    -1.7660    16.2670 hc         1 PTY       0.036700
     89 H252        -6.0280    -1.1020    15.5420 hc         1 PTY       0.036700
     90 H261        -5.8930     0.8700    17.0800 hc         1 PTY       0.036700
     91 H262        -4.4460     0.2060    17.8050 hc         1 PTY       0.036700
     92 H271        -5.7390    -1.8110    18.5370 hc         1 PTY       0.036700
     93 H272        -7.1870    -1.1450    17.8140 hc         1 PTY       0.036700
     94 H281        -7.0440     0.8270    19.3500 hc         1 PTY       0.036700
     95 H282        -5.5980     0.1600    20.0720 hc         1 PTY       0.036700
     96 H291        -7.5930    -0.3680    21.4770 hc         1 PTY       0.030700
     97 H292        -8.3590    -1.1770    20.1120 hc         1 PTY       0.030700
     98 H293        -6.9030    -1.8550    20.8330 hc         1 PTY       0.030700
     99 H311         0.6960     0.6530    -4.7640 hc         1 PTY       0.066700
    100 H312         0.9590     2.2420    -5.4290 hc         1 PTY       0.066700
    101 H321         1.0280     1.2730    -7.7470 hc         1 PTY       0.053700
    102 H322         0.8160    -0.3340    -7.0860 hc         1 PTY       0.053700
    103 H331        -1.3960     0.3420    -6.1380 hc         1 PTY       0.035700
    104 H332        -1.1930     1.9490    -6.8030 hc         1 PTY       0.035700
    105 H341        -1.0940     0.9900    -9.1090 hc         1 PTY       0.039200
    106 H342        -1.2660    -0.6230    -8.4510 hc         1 PTY       0.039200
    107 H351        -3.5040    -0.0060    -7.5170 hc         1 PTY       0.035700
    108 H352        -3.3390     1.6050    -8.1800 hc         1 PTY       0.035700
    109 H361        -3.2030     0.6470   -10.4870 hc         1 PTY       0.037700
    110 H362        -3.3500    -0.9670    -9.8280 hc         1 PTY       0.037700
    111 H371        -5.6040    -0.3890    -8.9060 hc         1 PTY       0.036700
    112 H372        -5.4620     1.2250    -9.5680 hc         1 PTY       0.036700
    113 H381        -5.3000     0.2680   -11.8750 hc         1 PTY       0.037200
    114 H382        -5.4310    -1.3480   -11.2150 hc         1 PTY       0.037200
    115 H391        -7.6970    -0.7920   -10.3030 hc         1 PTY       0.036700
    116 H392        -7.5660     0.8230   -10.9640 hc         1 PTY       0.036700
    117 H401        -7.3850    -0.1340   -13.2710 hc         1 PTY       0.036700
    118 H402        -7.5120    -1.7490   -12.6110 hc         1 PTY       0.036700
    119 H411        -9.7830    -1.2030   -11.7090 hc         1 PTY       0.036700
    120 H412        -9.6560     0.4130   -12.3670 hc         1 PTY       0.036700
    121 H421        -9.4610    -0.5440   -14.6750 hc         1 PTY       0.036700
    122 H422        -9.5940    -2.1590   -14.0160 hc         1 PTY       0.036700
    123 H431       -11.8660    -1.6070   -13.1230 hc         1 PTY       0.036200
    124 H432       -11.7350     0.0070   -13.7840 hc         1 PTY       0.036200
    125 H441       -13.0550    -1.4400   -15.3220 hc         1 PTY       0.030367
    126 H442       -11.5520    -0.9630   -16.1060 hc         1 PTY       0.030367
    127 H443       -11.7190    -2.5810   -15.4320 hc         1 PTY       0.030367
    128 HN11         8.8550    -4.5180    -4.4040 hn         1 PTY       0.333800
    129 HN12         8.1520    -3.0670    -4.3870 hn         1 PTY       0.333800
@<TRIPOS>BOND
     1     1     4 1   
     2     1     6 1   
     3     1    51 1   
     4     1    52 1   
     5     2     3 1   
     6     2    50 1   
     7     2    53 1   
     8     2    54 1   
     9     3    46 1   
    10     3    55 1   
    11     3    56 1   
    12     4    29 1   
    13     5     6 1   
    14     5    49 1   
    15     5    57 1   
    16     5    58 1   
    17     6     7 1   
    18     6    59 1   
    19     7     8 1   
    20     8     9 2   
    21     8    10 1   
    22    10    11 1   
    23    10    60 1   
    24    10    61 1   
    25    11    12 1   
    26    11    62 1   
    27    11    63 1   
    28    12    13 1   
    29    12    64 1   
    30    12    65 1   
    31    13    14 1   
    32    13    66 1   
    33    13    67 1   
    34    14    15 1   
    35    14    68 1   
    36    14    69 1   
    37    15    16 1   
    38    15    70 1   
    39    15    71 1   
    40    16    17 1   
    41    16    72 1   
    42    16    73 1   
    43    17    18 1   
    44    17    74 1   
    45    17    75 1   
    46    18    19 1   
    47    18    76 1   
    48    18    77 1   
    49    19    20 1   
    50    19    78 1   
    51    19    79 1   
    52    20    21 1   
    53    20    80 1   
    54    20    81 1   
    55    21    22 1   
    56    21    82 1   
    57    21    83 1   
    58    22    23 1   
    59    22    84 1   
    60    22    85 1   
    61    23    24 1   
    62    23    86 1   
    63    23    87 1   
    64    24    25 1   
    65    24    88 1   
    66    24    89 1   
    67    25    26 1   
    68    25    90 1   
    69    25    91 1   
    70    26    27 1   
    71    26    92 1   
    72    26    93 1   
    73    27    28 1   
    74    27    94 1   
    75    27    95 1   
    76    28    96 1   
    77    28    97 1   
    78    28    98 1   
    79    29    30 1   
    80    29    31 2   
    81    30    32 1   
    82    30    99 1   
    83    30   100 1   
    84    32    33 1   
    85    32   101 1   
    86    32   102 1   
    87    33    34 1   
    88    33   103 1   
    89    33   104 1   
    90    34    35 1   
    91    34   105 1   
    92    34   106 1   
    93    35    36 1   
    94    35   107 1   
    95    35   108 1   
    96    36    37 1   
    97    36   109 1   
    98    36   110 1   
    99    37    38 1   
   100    37   111 1   
   101    37   112 1   
   102    38    39 1   
   103    38   113 1   
   104    38   114 1   
   105    39    40 1   
   106    39   115 1   
   107    39   116 1   
   108    40    41 1   
   109    40   117 1   
   110    40   118 1   
   111    41    42 1   
   112    41   119 1   
   113    41   120 1   
   114    42    43 1   
   115    42   121 1   
   116    42   122 1   
   117    43    44 1   
   118    43   123 1   
   119    43   124 1   
   120    44   125 1   
   121    44   126 1   
   122    44   127 1   
   123    45    46 1   
   124    45    47 1   
   125    45    48 1   
   126    45    49 1   
   127    50   128 1   
   128    50   129 1   
@<TRIPOS>SUBSTRUCTURE
     1 PTY         1 TEMP              0 ****  ****    0 ROOT
