@<TRIPOS>MOLECULE
PTZ
   23    24     1     0     0
SMALL
No Charge or Current Charge


@<TRIPOS>ATOM
      1 S01         15.4150     0.8920    21.9370 ss         1 PTZ      -0.123400
      2 C02         14.6950    -0.1010    23.1540 cc         1 PTZ       0.694300
      3 N02         15.2710    -1.1960    23.6560 nv         1 PTZ      -1.037900
      4 N03         13.5400     0.2490    23.6340 nd         1 PTZ      -0.720000
      5 C04         13.1030     1.4110    23.0010 cd         1 PTZ       0.377500
      6 C05         13.9980     1.9040    22.0480 cc         1 PTZ      -0.215300
      7 C06         13.8910     3.0710    21.0980 c3         1 PTZ      -0.012800
      8 C11         11.8020     2.0040    23.4430 ca         1 PTZ      -0.119500
      9 C12         11.4230     3.3380    23.1500 ca         1 PTZ      -0.086500
     10 C13         10.2010     3.8650    23.6040 ca         1 PTZ      -0.118500
     11 C14          9.3330     3.0790    24.3730 ca         1 PTZ      -0.104000
     12 C15          9.6970     1.7660    24.6980 ca         1 PTZ      -0.118500
     13 C16         10.9190     1.2380    24.2470 ca         1 PTZ      -0.086500
     14 HN02        16.2750    -1.2700    23.5490 hn         1 PTZ       0.475500
     15 HN0A        14.8820    -1.5230    24.5320 hn         1 PTZ       0.475500
     16 H06         14.6070     2.9730    20.2730 hc         1 PTZ       0.048033
     17 H06A        12.8930     3.1300    20.6490 hc         1 PTZ       0.048033
     18 H06B        14.1110     4.0170    21.6060 hc         1 PTZ       0.048033
     19 H12         12.0720     4.0040    22.5970 ha         1 PTZ       0.120500
     20 H13          9.9320     4.8920    23.3650 ha         1 PTZ       0.112000
     21 H14          8.3880     3.4890    24.7240 ha         1 PTZ       0.111000
     22 H15          9.0320     1.1530    25.3030 ha         1 PTZ       0.112000
     23 H16         11.1630     0.2140    24.5180 ha         1 PTZ       0.120500
@<TRIPOS>BOND
     1     1     2 1   
     2     1     6 1   
     3     2     3 1   
     4     2     4 2   
     5     3    14 1   
     6     3    15 1   
     7     4     5 1   
     8     5     6 2   
     9     5     8 1   
    10     6     7 1   
    11     7    16 1   
    12     7    17 1   
    13     7    18 1   
    14     8     9 ar  
    15     8    13 ar  
    16     9    10 ar  
    17     9    19 1   
    18    10    11 ar  
    19    10    20 1   
    20    11    12 ar  
    21    11    21 1   
    22    12    13 ar  
    23    12    22 1   
    24    13    23 1   
@<TRIPOS>SUBSTRUCTURE
     1 PTZ         1 TEMP              0 ****  ****    0 ROOT
