@<TRIPOS>MOLECULE
PTZ
   23    24     1     0     0
SMALL
abcg2


@<TRIPOS>ATOM
      1 S01         15.3050     0.8600    21.9390 ss         1 PTZ      -0.123400
      2 C02         14.7360    -0.0400    23.3160 cc         1 PTZ       0.694300
      3 N02         15.4230    -1.1110    23.7860 nv         1 PTZ      -1.037900
      4 N03         13.6060     0.3740    23.7890 nd         1 PTZ      -0.720000
      5 C04         13.1260     1.4530    23.0790 cd         1 PTZ       0.377500
      6 C05         13.8880     1.8650    22.0280 cc         1 PTZ      -0.215300
      7 C06         13.6700     2.9340    21.0110 c3         1 PTZ      -0.012800
      8 C11         11.8400     2.0340    23.4940 ca         1 PTZ      -0.119500
      9 C12         11.5970     3.4070    23.4260 ca         1 PTZ      -0.086500
     10 C13         10.3730     3.9320    23.8180 ca         1 PTZ      -0.118500
     11 C14          9.3740     3.0950    24.2950 ca         1 PTZ      -0.104000
     12 C15          9.6110     1.7290    24.3850 ca         1 PTZ      -0.118500
     13 C16         10.8330     1.2040    23.9930 ca         1 PTZ      -0.086500
     14 HN02        16.4080    -1.1700    23.5870 hn         1 PTZ       0.475500
     15 HN0A        15.1760    -1.4090    24.7170 hn         1 PTZ       0.475500
     16 H06         14.0460     2.6320    20.0340 hc         1 PTZ       0.048033
     17 H06A        12.6080     3.1490    20.8990 hc         1 PTZ       0.048033
     18 H06B        14.1700     3.8670    21.2790 hc         1 PTZ       0.048033
     19 H12         12.3760     4.0800    23.0910 ha         1 PTZ       0.120500
     20 H13         10.2070     5.0000    23.7610 ha         1 PTZ       0.112000
     21 H14          8.4210     3.5050    24.6030 ha         1 PTZ       0.111000
     22 H15          8.8410     1.0680    24.7620 ha         1 PTZ       0.112000
     23 H16         11.0080     0.1390    24.0680 ha         1 PTZ       0.120500
@<TRIPOS>BOND
     1     1     2 1   
     2     1     6 1   
     3     2     3 1   
     4     2     4 2   
     5     3    14 1   
     6     3    15 1   
     7     4     5 1   
     8     5     6 2   
     9     5     8 1   
    10     6     7 1   
    11     7    16 1   
    12     7    17 1   
    13     7    18 1   
    14     8     9 ar  
    15     8    13 ar  
    16     9    10 ar  
    17     9    19 1   
    18    10    11 ar  
    19    10    20 1   
    20    11    12 ar  
    21    11    21 1   
    22    12    13 ar  
    23    12    22 1   
    24    13    23 1   
@<TRIPOS>SUBSTRUCTURE
     1 PTZ         1 TEMP              0 ****  ****    0 ROOT
