@<TRIPOS>MOLECULE
PU0
   48    50     1     0     0
SMALL
bcc


@<TRIPOS>ATOM
      1 C19         -3.2410     1.4620    -1.1100 c3         1 PU0       0.124700
      2 C5          -1.2580     0.9410    -3.0340 ca         1 PU0      -0.180000
      3 O20         -2.5070     0.2590    -1.0750 os         1 PU0      -0.304900
      4 C6          -1.5420     0.0660    -1.9980 ca         1 PU0       0.118100
      5 C4          -0.2360     0.6660    -3.9420 ca         1 PU0      -0.172000
      6 C3           0.5000    -0.5030    -3.8260 ca         1 PU0       0.104100
      7 O2           1.5100    -0.8650    -4.6480 os         1 PU0      -0.317900
      8 C8           1.8880     0.0350    -5.6670 c3         1 PU0       0.124700
      9 C2           0.2050    -1.3840    -2.7830 ca         1 PU0      -0.126000
     10 C1          -0.7870    -1.1100    -1.8610 ca         1 PU0      -0.090300
     11 C9          -1.0320    -2.0450    -0.7040 c3         1 PU0      -0.031400
     12 C10         -0.8080    -1.4280     0.6380 cc         1 PU0       0.418800
     13 N1          -1.7030    -1.3700     1.5830 nd         1 PU0      -0.542100
     14 C11         -1.0710    -0.7580     2.6310 ca         1 PU0      -0.244200
     15 C13         -1.4780    -0.4100     3.9310 ca         1 PU0       0.805200
     16 N5          -2.7000    -0.6500     4.3990 nv         1 PU0      -0.948500
     17 C12          0.2360    -0.4480     2.2930 ca         1 PU0       0.468800
     18 N4           1.1380     0.1440     3.0830 nb         1 PU0      -0.773000
     19 C14          0.6190     0.4040     4.2500 ca         1 PU0       0.930200
     20 N3          -0.5820     0.1860     4.7310 nb         1 PU0      -0.858000
     21 N2           0.4000    -0.8840     1.0190 na         1 PU0      -0.236000
     22 C15          1.6410    -0.8110     0.2700 c3         1 PU0       0.055300
     23 C16          1.8640     0.5320    -0.4110 c3         1 PU0      -0.097400
     24 C17          3.0950     0.4940    -1.3090 c3         1 PU0      -0.074400
     25 C18          3.3000     1.7910    -2.0770 c3         1 PU0      -0.086100
     26 F1           1.4480     0.9950     5.1110 f          1 PU0      -0.209200
     27 H191        -3.9260     1.4320    -0.2650 h1         1 PU0       0.040367
     28 H192        -2.5960     2.3390    -1.0070 h1         1 PU0       0.040367
     29 H193        -3.8230     1.5620    -2.0310 h1         1 PU0       0.040367
     30 H4          -0.0460     1.3830    -4.7290 ha         1 PU0       0.136000
     31 H8C1         2.7310    -0.4160    -6.1850 h1         1 PU0       0.040367
     32 H8C2         1.0830     0.2020    -6.3880 h1         1 PU0       0.040367
     33 H8C3         2.2000     1.0020    -5.2630 h1         1 PU0       0.040367
     34 H2           0.7900    -2.2910    -2.6820 ha         1 PU0       0.144000
     35 H9C1        -0.3850    -2.9190    -0.8100 hc         1 PU0       0.075200
     36 H9C2        -2.0580    -2.4160    -0.7100 hc         1 PU0       0.075200
     37 H5N1        -2.9560    -0.3670     5.3290 hn         1 PU0       0.454800
     38 H5N2        -3.4050    -1.0660     3.8150 hn         1 PU0       0.454800
     39 H151         1.6430    -1.6170    -0.4630 h1         1 PU0       0.064200
     40 H152         2.4540    -1.0200     0.9670 h1         1 PU0       0.064200
     41 H161         1.9770     1.3120     0.3470 hc         1 PU0       0.058200
     42 H162         0.9870     0.7930    -1.0080 hc         1 PU0       0.058200
     43 H171         2.9940    -0.3340    -2.0170 hc         1 PU0       0.040700
     44 H172         3.9830     0.2790    -0.7070 hc         1 PU0       0.040700
     45 H181         4.2050     1.7540    -2.6840 hc         1 PU0       0.032033
     46 H182         2.4600     1.9850    -2.7480 hc         1 PU0       0.032033
     47 H183         3.3880     2.6450    -1.4030 hc         1 PU0       0.032033
     48 H5          -1.8170     1.8580    -3.1610 ha         1 PU0       0.137000
@<TRIPOS>BOND
     1     1     3 1   
     2     1    27 1   
     3     1    28 1   
     4     1    29 1   
     5     2     4 ar  
     6     2     5 ar  
     7     2    48 1   
     8     3     4 1   
     9     4    10 ar  
    10     5     6 ar  
    11     5    30 1   
    12     6     7 1   
    13     6     9 ar  
    14     7     8 1   
    15     8    31 1   
    16     8    32 1   
    17     8    33 1   
    18     9    10 ar  
    19     9    34 1   
    20    10    11 1   
    21    11    12 1   
    22    11    35 1   
    23    11    36 1   
    24    12    13 2   
    25    12    21 1   
    26    13    14 1   
    27    14    15 ar  
    28    14    17 ar  
    29    15    16 1   
    30    15    20 ar  
    31    16    37 1   
    32    16    38 1   
    33    17    18 ar  
    34    17    21 1   
    35    18    19 ar  
    36    19    20 ar  
    37    19    26 1   
    38    21    22 1   
    39    22    23 1   
    40    22    39 1   
    41    22    40 1   
    42    23    24 1   
    43    23    41 1   
    44    23    42 1   
    45    24    25 1   
    46    24    43 1   
    47    24    44 1   
    48    25    45 1   
    49    25    46 1   
    50    25    47 1   
@<TRIPOS>SUBSTRUCTURE
     1 PU0         1 TEMP              0 ****  ****    0 ROOT
