@<TRIPOS>MOLECULE
PU0
   48    50     1     0     0
SMALL
No Charge or Current Charge


@<TRIPOS>ATOM
      1 C19         -3.3100     1.5920    -1.1660 c3         1 PU0       0.147900
      2 C5          -1.2390     0.9460    -3.0940 ca         1 PU0      -0.162000
      3 O20         -2.5600     0.3660    -1.1220 os         1 PU0      -0.328100
      4 C6          -1.5610     0.0720    -2.0310 ca         1 PU0       0.118100
      5 C4          -0.2070     0.6230    -3.9930 ca         1 PU0      -0.154000
      6 C3           0.5050    -0.5850    -3.8440 ca         1 PU0       0.104100
      7 O2           1.5340    -0.9500    -4.6890 os         1 PU0      -0.341100
      8 C8           2.0030    -0.0900    -5.7430 c3         1 PU0       0.147900
      9 C2           0.1780    -1.4570    -2.7950 ca         1 PU0      -0.108000
     10 C1          -0.8410    -1.1340    -1.8750 ca         1 PU0      -0.090300
     11 C9          -1.1300    -2.0750    -0.7030 c3         1 PU0      -0.031400
     12 C10         -0.8250    -1.4830     0.6540 cc         1 PU0       0.418800
     13 N1          -1.7030    -1.4430     1.6760 nd         1 PU0      -0.542100
     14 C11         -0.9780    -0.8340     2.7090 ca         1 PU0      -0.113600
     15 C13         -1.3840    -0.5140     4.0210 ca         1 PU0       0.476900
     16 N5          -2.6320    -0.7820     4.4850 nv         1 PU0      -1.058900
     17 C12          0.3050    -0.5200     2.3370 ca         1 PU0       0.140500
     18 N4           1.1720     0.0780     3.1750 nb         1 PU0      -0.247000
     19 C14          0.6840     0.3460     4.4070 ca         1 PU0       0.404200
     20 N3          -0.5540     0.0840     4.8830 nb         1 PU0      -0.332000
     21 N2           0.4080    -0.9400     1.0420 na         1 PU0      -0.265300
     22 C15          1.6630    -0.8330     0.2760 c3         1 PU0       0.084600
     23 C16          1.8520     0.5500    -0.3820 c3         1 PU0      -0.097400
     24 C17          3.0690     0.6050    -1.3290 c3         1 PU0      -0.074400
     25 C18          3.2050     1.9560    -2.0560 c3         1 PU0      -0.086100
     26 F1           1.5340     0.9490     5.2660 f          1 PU0      -0.209200
     27 H191        -4.0400     1.6200    -0.3480 h1         1 PU0       0.040367
     28 H192        -2.6460     2.4590    -1.0600 h1         1 PU0       0.040367
     29 H193        -3.8580     1.6790    -2.1130 h1         1 PU0       0.040367
     30 H4           0.0220     1.3180    -4.7950 ha         1 PU0       0.118000
     31 H8C1         2.8340    -0.5650    -6.2790 h1         1 PU0       0.040367
     32 H8C2         1.2030     0.1130    -6.4660 h1         1 PU0       0.040367
     33 H8C3         2.3610     0.8640    -5.3360 h1         1 PU0       0.040367
     34 H2           0.7390    -2.3820    -2.6870 ha         1 PU0       0.126000
     35 H9C1        -0.5620    -3.0060    -0.8080 hc         1 PU0       0.075200
     36 H9C2        -2.1840    -2.3740    -0.7350 hc         1 PU0       0.075200
     37 H5N1        -2.9530    -0.2700     5.3020 hn         1 PU0       0.510000
     38 H5N2        -3.3360    -1.0250     3.7930 hn         1 PU0       0.510000
     39 H151         1.6710    -1.6120    -0.4960 h1         1 PU0       0.064200
     40 H152         2.5090    -1.0350     0.9460 h1         1 PU0       0.064200
     41 H161         1.9630     1.3100     0.4020 hc         1 PU0       0.058200
     42 H162         0.9500     0.8110    -0.9460 hc         1 PU0       0.058200
     43 H171         2.9840    -0.1920    -2.0790 hc         1 PU0       0.040700
     44 H172         3.9850     0.4090    -0.7580 hc         1 PU0       0.040700
     45 H181         4.0810     1.9490    -2.7150 hc         1 PU0       0.032033
     46 H182         2.3180     2.1570    -2.6690 hc         1 PU0       0.032033
     47 H183         3.3230     2.7740    -1.3360 hc         1 PU0       0.032033
     48 H5          -1.7720     1.8820    -3.2350 ha         1 PU0       0.119000
@<TRIPOS>BOND
     1     1     3 1   
     2     1    27 1   
     3     1    28 1   
     4     1    29 1   
     5     2     4 ar  
     6     2     5 ar  
     7     2    48 1   
     8     3     4 1   
     9     4    10 ar  
    10     5     6 ar  
    11     5    30 1   
    12     6     7 1   
    13     6     9 ar  
    14     7     8 1   
    15     8    31 1   
    16     8    32 1   
    17     8    33 1   
    18     9    10 ar  
    19     9    34 1   
    20    10    11 1   
    21    11    12 1   
    22    11    35 1   
    23    11    36 1   
    24    12    13 2   
    25    12    21 1   
    26    13    14 1   
    27    14    15 ar  
    28    14    17 ar  
    29    15    16 1   
    30    15    20 ar  
    31    16    37 1   
    32    16    38 1   
    33    17    18 ar  
    34    17    21 1   
    35    18    19 ar  
    36    19    20 ar  
    37    19    26 1   
    38    21    22 1   
    39    22    23 1   
    40    22    39 1   
    41    22    40 1   
    42    23    24 1   
    43    23    41 1   
    44    23    42 1   
    45    24    25 1   
    46    24    43 1   
    47    24    44 1   
    48    25    45 1   
    49    25    46 1   
    50    25    47 1   
@<TRIPOS>SUBSTRUCTURE
     1 PU0         1 TEMP              0 ****  ****    0 ROOT
