@<TRIPOS>MOLECULE
PU1
   51    53     1     0     0
SMALL
No Charge or Current Charge


@<TRIPOS>ATOM
      1 Cl          -2.3830    -1.1670    -1.5660 cl         1 PU1      -0.166000
      2 C13         -0.6900    -0.7560    -1.8920 ca         1 PU1       0.069000
      3 C15         -0.3860     0.1120    -2.9650 ca         1 PU1       0.128100
      4 O3          -1.4900     0.5810    -3.6810 os         1 PU1      -0.346100
      5 C20         -1.4450     1.4620    -4.8180 c3         1 PU1       0.151900
      6 C17          0.9780     0.4540    -3.2450 ca         1 PU1       0.053100
      7 O2           1.2400     1.3250    -4.3050 os         1 PU1      -0.339100
      8 C19          2.5340     1.8140    -4.7030 c3         1 PU1       0.148900
      9 C16          2.0090    -0.1140    -2.4280 ca         1 PU1       0.135100
     10 O1           3.3440     0.1780    -2.6660 os         1 PU1      -0.321100
     11 C18          4.4300    -0.3840    -1.9070 c3         1 PU1       0.139900
     12 C14          1.6660    -0.9790    -1.3670 ca         1 PU1      -0.197000
     13 C12          0.3290    -1.2940    -1.0820 ca         1 PU1      -0.041300
     14 C6           0.0160    -2.2070     0.1070 c3         1 PU1      -0.041400
     15 C5          -0.7840    -1.5760     1.2260 cc         1 PU1       0.411800
     16 N3          -1.7510    -2.2320     1.8960 nd         1 PU1      -0.547100
     17 C2          -2.1870    -1.3020     2.8470 ca         1 PU1      -0.112600
     18 C3          -3.1920    -1.4290     3.8280 ca         1 PU1       0.479900
     19 N5          -3.9220    -2.5630     3.9840 nv         1 PU1      -1.055900
     20 C1          -1.5070    -0.1130     2.7690 ca         1 PU1       0.146500
     21 N1          -1.7700     0.9200     3.5920 nb         1 PU1      -0.249000
     22 C4          -2.7520     0.6990     4.4940 ca         1 PU1       0.409200
     23 N2          -3.4870    -0.4230     4.6610 nb         1 PU1      -0.330000
     24 N4          -0.6140    -0.2820     1.7490 na         1 PU1      -0.261300
     25 C7           0.3340     0.7810     1.3550 c3         1 PU1       0.073600
     26 C8           1.7740     0.5150     1.8380 c3         1 PU1      -0.091400
     27 C9           2.7760     1.5730     1.3280 c3         1 PU1       0.005700
     28 C10          4.1530     1.2890     1.7500 c1         1 PU1      -0.149100
     29 C11          5.2900     1.0330     2.0760 c1         1 PU1      -0.241000
     30 F           -3.0350     1.7220     5.3280 f          1 PU1      -0.207200
     31 H201        -2.4600     1.6550    -5.1850 h1         1 PU1       0.043700
     32 H202        -1.0000     2.4290    -4.5500 h1         1 PU1       0.043700
     33 H203        -0.8730     1.0150    -5.6410 h1         1 PU1       0.043700
     34 H191         2.4310     2.5020    -5.5500 h1         1 PU1       0.039700
     35 H192         3.0160     2.3630    -3.8840 h1         1 PU1       0.039700
     36 H193         3.1850     0.9900    -5.0220 h1         1 PU1       0.039700
     37 H181         5.3890    -0.0070    -2.2830 h1         1 PU1       0.046367
     38 H182         4.3520    -0.1090    -0.8480 h1         1 PU1       0.046367
     39 H183         4.4400    -1.4780    -1.9890 h1         1 PU1       0.046367
     40 H14          2.4360    -1.4160    -0.7390 ha         1 PU1       0.126000
     41 H6C1        -0.5220    -3.0900    -0.2560 hc         1 PU1       0.080200
     42 H6C2         0.9420    -2.6010     0.5400 hc         1 PU1       0.080200
     43 H5N1        -4.8070    -2.4930     4.4780 hn         1 PU1       0.511500
     44 H5N2        -3.8720    -3.2460     3.2320 hn         1 PU1       0.511500
     45 H7C1         0.3200     0.8890     0.2640 h1         1 PU1       0.077200
     46 H7C2        -0.0070     1.7400     1.7660 h1         1 PU1       0.077200
     47 H8C1         1.7840     0.4970     2.9350 hc         1 PU1       0.057700
     48 H8C2         2.0940    -0.4780     1.5010 hc         1 PU1       0.057700
     49 H9C1         2.7430     1.6160     0.2320 hc         1 PU1       0.060700
     50 H9C2         2.4860     2.5650     1.6970 hc         1 PU1       0.060700
     51 H11          6.2950     0.8100     2.3780 ha         1 PU1       0.256000
@<TRIPOS>BOND
     1     1     2 1   
     2     2     3 ar  
     3     2    13 ar  
     4     3     4 1   
     5     3     6 ar  
     6     4     5 1   
     7     5    31 1   
     8     5    32 1   
     9     5    33 1   
    10     6     7 1   
    11     6     9 ar  
    12     7     8 1   
    13     8    34 1   
    14     8    35 1   
    15     8    36 1   
    16     9    10 1   
    17     9    12 ar  
    18    10    11 1   
    19    11    37 1   
    20    11    38 1   
    21    11    39 1   
    22    12    13 ar  
    23    12    40 1   
    24    13    14 1   
    25    14    15 1   
    26    14    41 1   
    27    14    42 1   
    28    15    16 2   
    29    15    24 1   
    30    16    17 1   
    31    17    18 ar  
    32    17    20 ar  
    33    18    19 1   
    34    18    23 ar  
    35    19    43 1   
    36    19    44 1   
    37    20    21 ar  
    38    20    24 1   
    39    21    22 ar  
    40    22    23 ar  
    41    22    30 1   
    42    24    25 1   
    43    25    26 1   
    44    25    45 1   
    45    25    46 1   
    46    26    27 1   
    47    26    47 1   
    48    26    48 1   
    49    27    28 1   
    50    27    49 1   
    51    27    50 1   
    52    28    29 3   
    53    29    51 1   
@<TRIPOS>SUBSTRUCTURE
     1 PU1         1 TEMP              0 ****  ****    0 ROOT
