@<TRIPOS>MOLECULE
PU1
   51    53     1     0     0
SMALL
abcg2


@<TRIPOS>ATOM
      1 CL          -2.2080    -0.6840    -1.5810 cl         1 PU1      -0.166000
      2 C13         -0.5190    -0.4830    -1.8900 ca         1 PU1       0.069000
      3 C15         -0.1370     0.3960    -2.9060 ca         1 PU1       0.128100
      4 O3          -1.0710     1.0850    -3.5930 os         1 PU1      -0.346100
      5 C20         -1.4520     0.5000    -4.8350 c3         1 PU1       0.151900
      6 C17          1.2120     0.5750    -3.1910 ca         1 PU1       0.053100
      7 O2           1.5870     1.3980    -4.1970 os         1 PU1      -0.339100
      8 C19          1.8410     2.7400    -3.7940 c3         1 PU1       0.148900
      9 C16          2.1790    -0.1140    -2.4460 ca         1 PU1       0.135100
     10 O1           3.4550     0.1200    -2.7850 os         1 PU1      -0.321100
     11 C18          4.4770    -0.5690    -2.0900 c3         1 PU1       0.139900
     12 C14          1.7740    -0.9670    -1.4270 ca         1 PU1      -0.197000
     13 C12          0.4260    -1.1500    -1.1260 ca         1 PU1      -0.041300
     14 C6           0.0410    -2.0590     0.0100 c3         1 PU1      -0.041400
     15 C5          -0.7750    -1.4470     1.1040 cc         1 PU1       0.411800
     16 N3          -1.7670    -2.0700     1.6720 nd         1 PU1      -0.547100
     17 C2          -2.2160    -1.2160     2.6400 ca         1 PU1      -0.112600
     18 C3          -3.2590    -1.2930     3.5820 ca         1 PU1       0.479900
     19 N5          -4.0590    -2.3490     3.6910 nv         1 PU1      -1.055900
     20 C1          -1.4680    -0.0530     2.6430 ca         1 PU1       0.146500
     21 N1          -1.6410     0.9950     3.4540 nb         1 PU1      -0.249000
     22 C4          -2.6360     0.7810     4.2690 ca         1 PU1       0.409200
     23 N2          -3.4420    -0.2470     4.4000 nb         1 PU1      -0.330000
     24 N4          -0.5450    -0.2050     1.6570 na         1 PU1      -0.261300
     25 C7           0.4760     0.7720     1.3300 c3         1 PU1       0.073600
     26 C8           1.8610     0.3660     1.8150 c3         1 PU1      -0.091400
     27 C9           2.9050     1.3460     1.2780 c3         1 PU1       0.005700
     28 C10          4.2630     0.9760     1.6520 c1         1 PU1      -0.149100
     29 C11          5.3780     0.6500     1.9620 c1         1 PU1      -0.241000
     30 F           -2.8850     1.7760     5.1200 f          1 PU1      -0.207200
     31 H201        -2.2510     1.1170    -5.2420 h1         1 PU1       0.043700
     32 H202        -0.6210     0.4840    -5.5420 h1         1 PU1       0.043700
     33 H203        -1.8260    -0.5170    -4.6990 h1         1 PU1       0.043700
     34 H191         2.1240     3.2930    -4.6870 h1         1 PU1       0.039700
     35 H192         0.9520     3.2030    -3.3600 h1         1 PU1       0.039700
     36 H193         2.6580     2.7970    -3.0720 h1         1 PU1       0.039700
     37 H181         5.4170    -0.2540    -2.5350 h1         1 PU1       0.046367
     38 H182         4.4920    -0.3180    -1.0260 h1         1 PU1       0.046367
     39 H183         4.3820    -1.6520    -2.1950 h1         1 PU1       0.046367
     40 H14          2.5060    -1.5020    -0.8360 ha         1 PU1       0.126000
     41 H6C1        -0.5400    -2.9060    -0.3610 hc         1 PU1       0.080200
     42 H6C2         0.9510    -2.4850     0.4410 hc         1 PU1       0.080200
     43 H5N1        -4.7940    -2.3670     4.3770 hn         1 PU1       0.511500
     44 H5N2        -3.9370    -3.1520     3.1000 hn         1 PU1       0.511500
     45 H7C1         0.4790     0.9390     0.2530 h1         1 PU1       0.077200
     46 H7C2         0.1750     1.7120     1.7920 h1         1 PU1       0.077200
     47 H8C1         1.8860     0.3510     2.9060 hc         1 PU1       0.057700
     48 H8C2         2.1040    -0.6430     1.4780 hc         1 PU1       0.057700
     49 H9C1         2.8360     1.3920     0.1870 hc         1 PU1       0.060700
     50 H9C2         2.6930     2.3570     1.6380 hc         1 PU1       0.060700
     51 H11          6.3670     0.3690     2.2440 ha         1 PU1       0.256000
@<TRIPOS>BOND
     1     1     2 1   
     2     2     3 ar  
     3     2    13 ar  
     4     3     4 1   
     5     3     6 ar  
     6     4     5 1   
     7     5    31 1   
     8     5    32 1   
     9     5    33 1   
    10     6     7 1   
    11     6     9 ar  
    12     7     8 1   
    13     8    34 1   
    14     8    35 1   
    15     8    36 1   
    16     9    10 1   
    17     9    12 ar  
    18    10    11 1   
    19    11    37 1   
    20    11    38 1   
    21    11    39 1   
    22    12    13 ar  
    23    12    40 1   
    24    13    14 1   
    25    14    15 1   
    26    14    41 1   
    27    14    42 1   
    28    15    16 2   
    29    15    24 1   
    30    16    17 1   
    31    17    18 ar  
    32    17    20 ar  
    33    18    19 1   
    34    18    23 ar  
    35    19    43 1   
    36    19    44 1   
    37    20    21 ar  
    38    20    24 1   
    39    21    22 ar  
    40    22    23 ar  
    41    22    30 1   
    42    24    25 1   
    43    25    26 1   
    44    25    45 1   
    45    25    46 1   
    46    26    27 1   
    47    26    47 1   
    48    26    48 1   
    49    27    28 1   
    50    27    49 1   
    51    27    50 1   
    52    28    29 3   
    53    29    51 1   
@<TRIPOS>SUBSTRUCTURE
     1 PU1         1 TEMP              0 ****  ****    0 ROOT
