@<TRIPOS>MOLECULE
PU2
   36    38     1     0     0
SMALL
No Charge or Current Charge


@<TRIPOS>ATOM
      1 C18         -3.5900    -0.8120     1.8570 c3         1 PU2       0.149900
      2 N2           0.7930     1.7790    -1.3370 nc         1 PU2      -0.637700
      3 C12          0.6410     1.0050    -2.4770 ca         1 PU2       0.289000
      4 N4           1.3860     0.9890    -3.5970 nb         1 PU2      -0.186000
      5 C14          0.9890     0.1130    -4.5460 ca         1 PU2       0.380200
      6 C9          -0.4500     1.9400     0.8300 c3         1 PU2      -0.032400
      7 N3          -0.0600    -0.7390    -4.5030 nb         1 PU2      -0.312000
      8 C11         -0.4420     0.1770    -2.3420 ca         1 PU2      -0.293200
      9 C13         -0.7800    -0.6980    -3.3790 ca         1 PU2       0.452900
     10 N5          -1.8410    -1.5360    -3.3160 nv         1 PU2      -1.083900
     11 N1          -1.0230     0.3820    -1.1130 na         1 PU2      -0.280600
     12 C10         -0.2200     1.3730    -0.5470 cd         1 PU2       0.454800
     13 C1          -1.2930     0.0040     2.2820 ca         1 PU2       0.117100
     14 C6          -0.2660     0.9170     1.9520 ca         1 PU2      -0.073300
     15 C5           0.9520     0.8800     2.6610 ca         1 PU2      -0.090000
     16 C2          -1.0880    -0.9300     3.3220 ca         1 PU2      -0.155000
     17 C3           0.1300    -0.9560     4.0260 ca         1 PU2      -0.152000
     18 C4           1.1570    -0.0480     3.6940 ca         1 PU2       0.109100
     19 O1           2.3730    -0.0290     4.3480 os         1 PU2      -0.340100
     20 O2          -2.4750     0.0490     1.5640 os         1 PU2      -0.352100
     21 C7           2.6830    -0.9380     5.4200 c3         1 PU2       0.148900
     22 H181        -4.4240    -0.5990     1.1770 h1         1 PU2       0.040367
     23 H182        -3.3120    -1.8670     1.7340 h1         1 PU2       0.040367
     24 H183        -3.9420    -0.6580     2.8850 h1         1 PU2       0.040367
     25 H9C1        -1.4580     2.3670     0.8760 hc         1 PU2       0.064700
     26 H9C2         0.2220     2.7910     0.9900 hc         1 PU2       0.064700
     27 H5N1        -2.1360    -1.9810    -4.1820 hn         1 PU2       0.502500
     28 H5N2        -2.5780    -1.3360    -2.6470 hn         1 PU2       0.502500
     29 H1          -1.8060    -0.0860    -0.6710 hn         1 PU2       0.355000
     30 H5           1.7500     1.5750     2.4100 ha         1 PU2       0.130000
     31 H2          -1.8580    -1.6450     3.5980 ha         1 PU2       0.117000
     32 H3           0.2560    -1.6860     4.8200 ha         1 PU2       0.118000
     33 H7C1         3.6960    -0.7510     5.7950 h1         1 PU2       0.039700
     34 H7C2         1.9820    -0.8100     6.2550 h1         1 PU2       0.039700
     35 H7C3         2.6350    -1.9780     5.0750 h1         1 PU2       0.039700
     36 F1           1.7270     0.0850    -5.6770 f          1 PU2      -0.208200
@<TRIPOS>BOND
     1     1    20 1   
     2     1    22 1   
     3     1    23 1   
     4     1    24 1   
     5     2     3 1   
     6     2    12 2   
     7     3     4 ar  
     8     3     8 ar  
     9     4     5 ar  
    10     5     7 ar  
    11     5    36 1   
    12     6    12 1   
    13     6    14 1   
    14     6    25 1   
    15     6    26 1   
    16     7     9 ar  
    17     8     9 ar  
    18     8    11 1   
    19     9    10 1   
    20    10    27 1   
    21    10    28 1   
    22    11    12 1   
    23    11    29 1   
    24    13    14 ar  
    25    13    16 ar  
    26    13    20 1   
    27    14    15 ar  
    28    15    18 ar  
    29    15    30 1   
    30    16    17 ar  
    31    16    31 1   
    32    17    18 ar  
    33    17    32 1   
    34    18    19 1   
    35    19    21 1   
    36    21    33 1   
    37    21    34 1   
    38    21    35 1   
@<TRIPOS>SUBSTRUCTURE
     1 PU2         1 TEMP              0 ****  ****    0 ROOT
