@<TRIPOS>MOLECULE
PU2
   36    38     1     0     0
SMALL
bcc


@<TRIPOS>ATOM
      1 C18         -2.7060    -1.8200     1.5380 c3         1 PU2       0.126700
      2 N2           0.5870     0.2090    -0.7660 nc         1 PU2      -0.637700
      3 C12          0.3260    -0.1690    -2.0410 ca         1 PU2       0.617300
      4 N4           1.0880    -0.9680    -2.8080 nb         1 PU2      -0.712000
      5 C14          0.5710    -1.1420    -3.9870 ca         1 PU2       0.906200
      6 C9          -0.5630     1.6650     0.8920 c3         1 PU2      -0.032400
      7 N3          -0.5340    -0.6810    -4.5270 nb         1 PU2      -0.838000
      8 C11         -0.8690     0.3920    -2.4800 ca         1 PU2      -0.423800
      9 C13         -1.3090     0.1170    -3.7820 ca         1 PU2       0.781200
     10 N5          -2.4330     0.5950    -4.3160 nv         1 PU2      -0.973500
     11 N1          -1.3230     1.1280    -1.4160 na         1 PU2      -0.230300
     12 C10         -0.4220     0.9810    -0.4250 cd         1 PU2       0.454800
     13 C1          -0.9510    -0.4010     2.2700 ca         1 PU2       0.117100
     14 C6          -0.2050     0.7650     2.0410 ca         1 PU2      -0.073300
     15 C5           0.8470     1.0730     2.8800 ca         1 PU2      -0.108000
     16 C2          -0.6160    -1.2260     3.3300 ca         1 PU2      -0.173000
     17 C3           0.4500    -0.9060     4.1730 ca         1 PU2      -0.170000
     18 C4           1.1880     0.2460     3.9540 ca         1 PU2       0.109100
     19 O1           2.2360     0.6470     4.7080 os         1 PU2      -0.316900
     20 O2          -1.9610    -0.6280     1.4030 os         1 PU2      -0.328900
     21 C7           2.6240    -0.1700     5.7920 c3         1 PU2       0.125700
     22 H181        -3.4290    -1.8270     0.7260 h1         1 PU2       0.040367
     23 H182        -2.0740    -2.7080     1.4530 h1         1 PU2       0.040367
     24 H183        -3.2440    -1.8620     2.4890 h1         1 PU2       0.040367
     25 H9C1        -1.5810     2.0460     0.9970 hc         1 PU2       0.064700
     26 H9C2         0.0960     2.5370     0.8970 hc         1 PU2       0.064700
     27 H5N1        -2.6750     0.3650    -5.2640 hn         1 PU2       0.447300
     28 H5N2        -3.0520     1.2040    -3.8100 hn         1 PU2       0.447300
     29 H1          -2.1720     1.6700    -1.3590 hn         1 PU2       0.304700
     30 H5           1.4230     1.9740     2.7030 ha         1 PU2       0.148000
     31 H2          -1.1690    -2.1340     3.5320 ha         1 PU2       0.135000
     32 H3           0.6750    -1.5810     4.9870 ha         1 PU2       0.136000
     33 H7C1         3.4770     0.3170     6.2590 h1         1 PU2       0.039700
     34 H7C2         1.8280    -0.2720     6.5350 h1         1 PU2       0.039700
     35 H7C3         2.9250    -1.1690     5.4650 h1         1 PU2       0.039700
     36 F1           1.2790    -1.9240    -4.8040 f          1 PU2      -0.208200
@<TRIPOS>BOND
     1     1    20 1   
     2     1    22 1   
     3     1    23 1   
     4     1    24 1   
     5     2     3 1   
     6     2    12 2   
     7     3     4 ar  
     8     3     8 ar  
     9     4     5 ar  
    10     5     7 ar  
    11     5    36 1   
    12     6    12 1   
    13     6    14 1   
    14     6    25 1   
    15     6    26 1   
    16     7     9 ar  
    17     8     9 ar  
    18     8    11 1   
    19     9    10 1   
    20    10    27 1   
    21    10    28 1   
    22    11    12 1   
    23    11    29 1   
    24    13    14 ar  
    25    13    16 ar  
    26    13    20 1   
    27    14    15 ar  
    28    15    18 ar  
    29    15    30 1   
    30    16    17 ar  
    31    16    31 1   
    32    17    18 ar  
    33    17    32 1   
    34    18    19 1   
    35    19    21 1   
    36    21    33 1   
    37    21    34 1   
    38    21    35 1   
@<TRIPOS>SUBSTRUCTURE
     1 PU2         1 TEMP              0 ****  ****    0 ROOT
