@<TRIPOS>MOLECULE
PU3
   52    54     1     0     0
SMALL
No Charge or Current Charge


@<TRIPOS>ATOM
      1 C19         -2.8780    -0.4520    -2.9850 c3         1 PU3       0.144900
      2 O3          -1.5100    -0.5590    -3.4190 os         1 PU3      -0.322600
      3 C5          -0.4560     0.0630    -2.7690 ca         1 PU3       0.158600
      4 C6          -0.7010     0.8580    -1.6260 ca         1 PU3      -0.223500
      5 C4           0.8860    -0.0940    -3.2380 ca         1 PU3       0.026100
      6 O1           1.2560    -0.8550    -4.3490 os         1 PU3      -0.328100
      7 C7           0.3490    -1.5960    -5.1840 c3         1 PU3       0.147900
      8 C3           1.9360     0.5570    -2.5450 ca         1 PU3       0.158600
      9 O2           3.2320     0.3890    -3.0100 os         1 PU3      -0.322600
     10 C8           4.3710     0.9900    -2.3690 c3         1 PU3       0.144900
     11 C2           1.6620     1.3470    -1.4100 ca         1 PU3      -0.223500
     12 C1           0.3480     1.4940    -0.9450 ca         1 PU3      -0.019300
     13 C9           0.0580     2.3160     0.3050 c3         1 PU3      -0.048400
     14 C10         -0.6120     1.5450     1.4180 cc         1 PU3       0.405800
     15 N1          -1.6830     2.0010     2.0970 nd         1 PU3      -0.560100
     16 C11         -1.9340     0.9910     3.0350 ca         1 PU3      -0.097600
     17 C13         -2.9390     0.9140     4.0210 ca         1 PU3       0.444900
     18 N5          -3.8680     1.8910     4.1990 nv         1 PU3      -1.060900
     19 C12         -1.0450    -0.0520     2.9360 ca         1 PU3       0.124500
     20 N4          -1.1080    -1.1300     3.7440 nb         1 PU3      -0.219000
     21 C14         -2.1070    -1.1200     4.6590 ca         1 PU3       0.179900
     22 N3          -3.0330    -0.1470     4.8380 nb         1 PU3      -0.301000
     23 N2          -0.2070     0.2960     1.9150 na         1 PU3      -0.266300
     24 C15          0.8910    -0.5840     1.4610 c3         1 PU3       0.074600
     25 C16          2.2890    -0.0710     1.8640 c3         1 PU3      -0.097400
     26 C17          3.4280    -0.9460     1.2980 c3         1 PU3      -0.073400
     27 C18          4.8290    -0.4180     1.6600 c3         1 PU3      -0.089100
     28 H191        -3.5320    -1.0300    -3.6500 h1         1 PU3       0.042533
     29 H192        -2.9970    -0.8440    -1.9670 h1         1 PU3       0.042533
     30 H193        -3.2130     0.5930    -3.0050 h1         1 PU3       0.042533
     31 H6          -1.7080     0.9910    -1.2420 ha         1 PU3       0.126000
     32 H7C1         0.9040    -2.1040    -5.9830 h1         1 PU3       0.033700
     33 H7C2        -0.1800    -2.3630    -4.6050 h1         1 PU3       0.033700
     34 H7C3        -0.3830    -0.9290    -5.6570 h1         1 PU3       0.033700
     35 H8C1         5.2920     0.7210    -2.9020 h1         1 PU3       0.042533
     36 H8C2         4.2870     2.0850    -2.3690 h1         1 PU3       0.042533
     37 H8C3         4.4660     0.6430    -1.3330 h1         1 PU3       0.042533
     38 H2           2.4630     1.8460    -0.8730 ha         1 PU3       0.126000
     39 H9C1        -0.5760     3.1660     0.0290 hc         1 PU3       0.074700
     40 H9C2         0.9800     2.7590     0.6980 hc         1 PU3       0.074700
     41 H5N1        -4.7190     1.6560     4.7030 hn         1 PU3       0.502000
     42 H5N2        -3.9500     2.5900     3.4640 hn         1 PU3       0.502000
     43 H14         -2.1720    -1.9840     5.3180 h5         1 PU3       0.046100
     44 H151         0.8350    -0.6880     0.3710 h1         1 PU3       0.073700
     45 H152         0.7470    -1.5880     1.8800 h1         1 PU3       0.073700
     46 H161         2.3580    -0.0420     2.9580 hc         1 PU3       0.051200
     47 H162         2.4190     0.9570     1.5080 hc         1 PU3       0.051200
     48 H171         3.3380    -0.9970     0.2050 hc         1 PU3       0.038700
     49 H172         3.3220    -1.9710     1.6750 hc         1 PU3       0.038700
     50 H181         5.6030    -1.0680     1.2340 hc         1 PU3       0.034367
     51 H182         4.9760     0.5950     1.2660 hc         1 PU3       0.034367
     52 H183         4.9640    -0.3910     2.7480 hc         1 PU3       0.034367
@<TRIPOS>BOND
     1     1     2 1   
     2     1    28 1   
     3     1    29 1   
     4     1    30 1   
     5     2     3 1   
     6     3     4 ar  
     7     3     5 ar  
     8     4    12 ar  
     9     4    31 1   
    10     5     6 1   
    11     5     8 ar  
    12     6     7 1   
    13     7    32 1   
    14     7    33 1   
    15     7    34 1   
    16     8     9 1   
    17     8    11 ar  
    18     9    10 1   
    19    10    35 1   
    20    10    36 1   
    21    10    37 1   
    22    11    12 ar  
    23    11    38 1   
    24    12    13 1   
    25    13    14 1   
    26    13    39 1   
    27    13    40 1   
    28    14    15 2   
    29    14    23 1   
    30    15    16 1   
    31    16    17 ar  
    32    16    19 ar  
    33    17    18 1   
    34    17    22 ar  
    35    18    41 1   
    36    18    42 1   
    37    19    20 ar  
    38    19    23 1   
    39    20    21 ar  
    40    21    22 ar  
    41    21    43 1   
    42    23    24 1   
    43    24    25 1   
    44    24    44 1   
    45    24    45 1   
    46    25    26 1   
    47    25    46 1   
    48    25    47 1   
    49    26    27 1   
    50    26    48 1   
    51    26    49 1   
    52    27    50 1   
    53    27    51 1   
    54    27    52 1   
@<TRIPOS>SUBSTRUCTURE
     1 PU3         1 TEMP              0 ****  ****    0 ROOT
