@<TRIPOS>MOLECULE
PU3
   52    54     1     0     0
SMALL
abcg2


@<TRIPOS>ATOM
      1 C19         -3.1680    -0.5790    -2.6640 c3         1 PU3       0.144900
      2 O3          -1.9120    -0.7710    -3.2840 os         1 PU3      -0.322600
      3 C5          -0.8300    -0.2000    -2.7280 ca         1 PU3       0.158600
      4 C6          -0.8610     0.6030    -1.5900 ca         1 PU3      -0.223500
      5 C4           0.3860    -0.4700    -3.3620 ca         1 PU3       0.026100
      6 O1           0.4220    -1.2860    -4.4490 os         1 PU3      -0.328100
      7 C7           0.2720    -0.6080    -5.6900 c3         1 PU3       0.147900
      8 C3           1.5670     0.0820    -2.8620 ca         1 PU3       0.158600
      9 O2           2.6880    -0.2290    -3.5340 os         1 PU3      -0.322600
     10 C8           3.9240     0.2310    -3.0270 c3         1 PU3       0.144900
     11 C2           1.5300     0.8870    -1.7240 ca         1 PU3      -0.223500
     12 C1           0.3200     1.1420    -1.0960 ca         1 PU3      -0.019300
     13 C9           0.2830     2.0130     0.1400 c3         1 PU3      -0.048400
     14 C10         -0.4290     1.3700     1.2800 cc         1 PU3       0.405800
     15 N1          -1.5760     1.7720     1.7570 nd         1 PU3      -0.560100
     16 C11         -1.8630     0.8910     2.7650 ca         1 PU3      -0.097600
     17 C13         -2.9430     0.7700     3.6560 ca         1 PU3       0.444900
     18 N5          -3.9750     1.6200     3.6630 nv         1 PU3      -1.060900
     19 C12         -0.8590    -0.0570     2.8850 ca         1 PU3       0.124500
     20 N4          -0.8180    -1.0580     3.7620 nb         1 PU3      -0.219000
     21 C14         -1.8830    -1.0680     4.5450 ca         1 PU3       0.179900
     22 N3          -2.9180    -0.2330     4.5410 nb         1 PU3      -0.301000
     23 N2           0.0520     0.2570     1.9220 na         1 PU3      -0.266300
     24 C15          1.3040    -0.4360     1.6840 c3         1 PU3       0.074600
     25 C16          2.4850     0.2060     2.3990 c3         1 PU3      -0.097400
     26 C17          3.7970    -0.4740     2.0300 c3         1 PU3      -0.073400
     27 C18          4.9930     0.1360     2.7450 c3         1 PU3      -0.089100
     28 H191        -3.8900    -1.1380    -3.2540 h1         1 PU3       0.042533
     29 H192        -3.1810    -0.9620    -1.6400 h1         1 PU3       0.042533
     30 H193        -3.4630     0.4730    -2.6530 h1         1 PU3       0.042533
     31 H6          -1.7940     0.8160    -1.0850 ha         1 PU3       0.126000
     32 H7C1         0.3190    -1.3590    -6.4760 h1         1 PU3       0.033700
     33 H7C2        -0.6890    -0.0920    -5.7550 h1         1 PU3       0.033700
     34 H7C3         1.0720     0.1190    -5.8530 h1         1 PU3       0.033700
     35 H8C1         4.6920    -0.1510    -3.6950 h1         1 PU3       0.042533
     36 H8C2         3.9830     1.3230    -3.0130 h1         1 PU3       0.042533
     37 H8C3         4.1160    -0.1450    -2.0180 h1         1 PU3       0.042533
     38 H2           2.4350     1.3130    -1.3100 ha         1 PU3       0.126000
     39 H9C1        -0.2360     2.9480    -0.0770 hc         1 PU3       0.074700
     40 H9C2         1.3020     2.2830     0.4320 hc         1 PU3       0.074700
     41 H5N1        -4.7790     1.4200     4.2340 hn         1 PU3       0.502000
     42 H5N2        -4.0800     2.3020     2.9320 hn         1 PU3       0.502000
     43 H14         -1.9230    -1.8580     5.2870 h5         1 PU3       0.046100
     44 H151         1.4790    -0.4700     0.6080 h1         1 PU3       0.073700
     45 H152         1.1720    -1.4660     2.0160 h1         1 PU3       0.073700
     46 H161         2.3280     0.1570     3.4800 hc         1 PU3       0.051200
     47 H162         2.5430     1.2680     2.1410 hc         1 PU3       0.051200
     48 H171         3.9430    -0.4080     0.9470 hc         1 PU3       0.038700
     49 H172         3.7330    -1.5420     2.2620 hc         1 PU3       0.038700
     50 H181         5.9230    -0.3500     2.4500 hc         1 PU3       0.034367
     51 H182         5.0880     1.2000     2.5170 hc         1 PU3       0.034367
     52 H183         4.8970     0.0390     3.8280 hc         1 PU3       0.034367
@<TRIPOS>BOND
     1     1     2 1   
     2     1    28 1   
     3     1    29 1   
     4     1    30 1   
     5     2     3 1   
     6     3     4 ar  
     7     3     5 ar  
     8     4    12 ar  
     9     4    31 1   
    10     5     6 1   
    11     5     8 ar  
    12     6     7 1   
    13     7    32 1   
    14     7    33 1   
    15     7    34 1   
    16     8     9 1   
    17     8    11 ar  
    18     9    10 1   
    19    10    35 1   
    20    10    36 1   
    21    10    37 1   
    22    11    12 ar  
    23    11    38 1   
    24    12    13 1   
    25    13    14 1   
    26    13    39 1   
    27    13    40 1   
    28    14    15 2   
    29    14    23 1   
    30    15    16 1   
    31    16    17 ar  
    32    16    19 ar  
    33    17    18 1   
    34    17    22 ar  
    35    18    41 1   
    36    18    42 1   
    37    19    20 ar  
    38    19    23 1   
    39    20    21 ar  
    40    21    22 ar  
    41    21    43 1   
    42    23    24 1   
    43    24    25 1   
    44    24    44 1   
    45    24    45 1   
    46    25    26 1   
    47    25    46 1   
    48    25    47 1   
    49    26    27 1   
    50    26    48 1   
    51    26    49 1   
    52    27    50 1   
    53    27    51 1   
    54    27    52 1   
@<TRIPOS>SUBSTRUCTURE
     1 PU3         1 TEMP              0 ****  ****    0 ROOT
