@<TRIPOS>MOLECULE
PU4
   44    46     1     0     0
SMALL
bcc


@<TRIPOS>ATOM
      1 C18          5.2750     0.2140     1.9200 c3         1 PU4      -0.088100
      2 C17          4.0960    -0.4130     1.1910 c3         1 PU4      -0.072400
      3 C16          2.7600     0.1670     1.6350 c3         1 PU4      -0.099400
      4 C15          1.5950    -0.4830     0.9020 c3         1 PU4       0.049300
      5 N2           0.3150     0.0990     1.2540 na         1 PU4      -0.238000
      6 C12         -0.4520    -0.2580     2.3210 ca         1 PU4       0.451800
      7 N4          -0.2340    -1.2300     3.2040 nb         1 PU4      -0.745000
      8 C14         -1.1980    -1.2990     4.1040 ca         1 PU4       0.704900
      9 N3          -2.2890    -0.5440     4.2080 nb         1 PU4      -0.827000
     10 C11         -1.5340     0.6100     2.3030 ca         1 PU4      -0.227200
     11 C13         -2.4920     0.4320     3.3150 ca         1 PU4       0.772200
     12 N5          -3.5770     1.2060     3.4290 nv         1 PU4      -0.948500
     13 N1          -1.4310     1.4870     1.2560 nc         1 PU4      -0.558100
     14 C10         -0.3190     1.1590     0.6560 cd         1 PU4       0.406800
     15 C9           0.2010     1.8140    -0.5770 c3         1 PU4      -0.038400
     16 C1           0.0020     0.9720    -1.8170 ca         1 PU4      -0.129300
     17 C6          -1.2590     0.4760    -2.1510 ca         1 PU4      -0.083500
     18 C5          -1.4520    -0.2760    -3.2930 ca         1 PU4      -0.189000
     19 C2           1.0590     0.6860    -2.6680 ca         1 PU4      -0.083500
     20 C3           0.8840    -0.0700    -3.8230 ca         1 PU4      -0.189000
     21 C4          -0.3790    -0.5560    -4.1430 ca         1 PU4       0.144100
     22 O1          -0.6590    -1.2950    -5.2340 os         1 PU4      -0.316900
     23 C7           0.3960    -1.6290    -6.1120 c3         1 PU4       0.124700
     24 H181         5.3150     1.2920     1.7520 hc         1 PU4       0.034367
     25 H182         6.2210    -0.2090     1.5820 hc         1 PU4       0.034367
     26 H183         5.2050     0.0510     2.9970 hc         1 PU4       0.034367
     27 H171         4.2110    -0.2690     0.1120 hc         1 PU4       0.038200
     28 H172         4.0960    -1.4950     1.3550 hc         1 PU4       0.038200
     29 H161         2.6320     0.0270     2.7130 hc         1 PU4       0.053200
     30 H162         2.7500     1.2470     1.4570 hc         1 PU4       0.053200
     31 H151         1.7230    -0.4000    -0.1780 h1         1 PU4       0.069200
     32 H152         1.5460    -1.5480     1.1300 h1         1 PU4       0.069200
     33 H14         -1.0930    -2.0700     4.8610 h5         1 PU4       0.045100
     34 H5N1        -4.2980     0.9560     4.0840 hn         1 PU4       0.445800
     35 H5N2        -3.8190     1.8520     2.6980 hn         1 PU4       0.445800
     36 H9C1        -0.3240     2.7660    -0.6810 hc         1 PU4       0.070700
     37 H9C2         1.2600     2.0570    -0.4630 hc         1 PU4       0.070700
     38 H6          -2.1070     0.6810    -1.5080 ha         1 PU4       0.135500
     39 H5          -2.4380    -0.6520    -3.5380 ha         1 PU4       0.141000
     40 H2           2.0510     1.0550    -2.4340 ha         1 PU4       0.135500
     41 H3           1.7420    -0.2630    -4.4520 ha         1 PU4       0.141000
     42 H7C1        -0.0440    -2.2140    -6.9160 h1         1 PU4       0.041033
     43 H7C2         0.8690    -0.7410    -6.5420 h1         1 PU4       0.041033
     44 H7C3         1.1630    -2.2320    -5.6200 h1         1 PU4       0.041033
@<TRIPOS>BOND
     1     1     2 1   
     2     1    24 1   
     3     1    25 1   
     4     1    26 1   
     5     2     3 1   
     6     2    27 1   
     7     2    28 1   
     8     3     4 1   
     9     3    29 1   
    10     3    30 1   
    11     4     5 1   
    12     4    31 1   
    13     4    32 1   
    14     5     6 1   
    15     5    14 1   
    16     6     7 ar  
    17     6    10 ar  
    18     7     8 ar  
    19     8     9 ar  
    20     8    33 1   
    21     9    11 ar  
    22    10    11 ar  
    23    10    13 1   
    24    11    12 1   
    25    12    34 1   
    26    12    35 1   
    27    13    14 2   
    28    14    15 1   
    29    15    16 1   
    30    15    36 1   
    31    15    37 1   
    32    16    17 ar  
    33    16    19 ar  
    34    17    18 ar  
    35    17    38 1   
    36    18    21 ar  
    37    18    39 1   
    38    19    20 ar  
    39    19    40 1   
    40    20    21 ar  
    41    20    41 1   
    42    21    22 1   
    43    22    23 1   
    44    23    42 1   
    45    23    43 1   
    46    23    44 1   
@<TRIPOS>SUBSTRUCTURE
     1 PU4         1 TEMP              0 ****  ****    0 ROOT
