@<TRIPOS>MOLECULE
PU4
   44    46     1     0     0
SMALL
No Charge or Current Charge


@<TRIPOS>ATOM
      1 C18          4.9920    -0.0970     0.5630 c3         1 PU4      -0.088100
      2 C17          3.6280    -0.7910     0.3910 c3         1 PU4      -0.072400
      3 C16          2.4650    -0.0030     1.0300 c3         1 PU4      -0.099400
      4 C15          1.1010    -0.6960     0.8420 c3         1 PU4       0.078600
      5 N2          -0.0260     0.0860     1.3850 na         1 PU4      -0.267300
      6 C12         -0.7080    -0.2280     2.5320 ca         1 PU4       0.123500
      7 N4          -0.5440    -1.2280     3.4220 nb         1 PU4      -0.219000
      8 C14         -1.4120    -1.2440     4.4610 ca         1 PU4       0.178900
      9 N3          -2.4150    -0.3640     4.6910 nb         1 PU4      -0.301000
     10 C11         -1.6940     0.7190     2.6720 ca         1 PU4      -0.096600
     11 C13         -2.5500     0.6220     3.7910 ca         1 PU4       0.443900
     12 N5          -3.5580     1.5060     4.0210 nv         1 PU4      -1.058900
     13 N1          -1.6910     1.6600     1.6440 nc         1 PU4      -0.558100
     14 C10         -0.6640     1.2380     0.8830 cd         1 PU4       0.406800
     15 C9          -0.2550     1.9840    -0.3680 c3         1 PU4      -0.038400
     16 C1          -0.0710     1.1120    -1.6070 ca         1 PU4      -0.129300
     17 C6          -1.1400     0.3280    -2.0810 ca         1 PU4      -0.065500
     18 C5          -0.9670    -0.4960    -3.2060 ca         1 PU4      -0.171000
     19 C2           1.1690     1.0670    -2.2740 ca         1 PU4      -0.065500
     20 C3           1.3420     0.2400    -3.3980 ca         1 PU4      -0.171000
     21 C4           0.2690    -0.5470    -3.8680 ca         1 PU4       0.144100
     22 O1           0.3800    -1.3780    -4.9640 os         1 PU4      -0.340100
     23 C7           1.6040    -1.5070    -5.7090 c3         1 PU4       0.147900
     24 H181         4.9850     0.8950     0.0950 hc         1 PU4       0.034367
     25 H182         5.7860    -0.6910     0.0950 hc         1 PU4       0.034367
     26 H183         5.2350     0.0230     1.6260 hc         1 PU4       0.034367
     27 H171         3.4300    -0.9250    -0.6800 hc         1 PU4       0.038200
     28 H172         3.6770    -1.7930     0.8350 hc         1 PU4       0.038200
     29 H161         2.6560     0.1250     2.1030 hc         1 PU4       0.053200
     30 H162         2.4290     1.0000     0.5900 hc         1 PU4       0.053200
     31 H151         0.9240    -0.8810    -0.2250 h1         1 PU4       0.069200
     32 H152         1.1270    -1.6770     1.3340 h1         1 PU4       0.069200
     33 H14         -1.2910    -2.0480     5.1850 h5         1 PU4       0.045100
     34 H5N1        -4.3030     1.2260     4.6520 hn         1 PU4       0.501000
     35 H5N2        -3.8150     2.1230     3.2540 hn         1 PU4       0.501000
     36 H9C1        -1.0030     2.7530    -0.5900 hc         1 PU4       0.070700
     37 H9C2         0.6660     2.5380    -0.1540 hc         1 PU4       0.070700
     38 H6          -2.1040     0.3530    -1.5750 ha         1 PU4       0.117500
     39 H5          -1.7960    -1.1010    -3.5650 ha         1 PU4       0.123000
     40 H2           2.0050     1.6660    -1.9190 ha         1 PU4       0.117500
     41 H3           2.3110     0.2240    -3.8870 ha         1 PU4       0.123000
     42 H7C1         1.4740    -2.2160    -6.5350 h1         1 PU4       0.041033
     43 H7C2         1.9050    -0.5410    -6.1340 h1         1 PU4       0.041033
     44 H7C3         2.4140    -1.8780    -5.0670 h1         1 PU4       0.041033
@<TRIPOS>BOND
     1     1     2 1   
     2     1    24 1   
     3     1    25 1   
     4     1    26 1   
     5     2     3 1   
     6     2    27 1   
     7     2    28 1   
     8     3     4 1   
     9     3    29 1   
    10     3    30 1   
    11     4     5 1   
    12     4    31 1   
    13     4    32 1   
    14     5     6 1   
    15     5    14 1   
    16     6     7 ar  
    17     6    10 ar  
    18     7     8 ar  
    19     8     9 ar  
    20     8    33 1   
    21     9    11 ar  
    22    10    11 ar  
    23    10    13 1   
    24    11    12 1   
    25    12    34 1   
    26    12    35 1   
    27    13    14 2   
    28    14    15 1   
    29    15    16 1   
    30    15    36 1   
    31    15    37 1   
    32    16    17 ar  
    33    16    19 ar  
    34    17    18 ar  
    35    17    38 1   
    36    18    21 ar  
    37    18    39 1   
    38    19    20 ar  
    39    19    40 1   
    40    20    21 ar  
    41    20    41 1   
    42    21    22 1   
    43    22    23 1   
    44    23    42 1   
    45    23    43 1   
    46    23    44 1   
@<TRIPOS>SUBSTRUCTURE
     1 PU4         1 TEMP              0 ****  ****    0 ROOT
