@<TRIPOS>MOLECULE
PU5
   44    46     1     0     0
SMALL
abcg2


@<TRIPOS>ATOM
      1 C18          5.2370     0.1810     0.8060 c3         1 PU5      -0.088100
      2 C17          3.9300    -0.4200     0.3090 c3         1 PU5      -0.073400
      3 C16          2.7110     0.1870     0.9930 c3         1 PU5      -0.098400
      4 C15          1.4190    -0.4560     0.5100 c3         1 PU5       0.077600
      5 N2           0.2430     0.1310     1.1220 na         1 PU5      -0.266300
      6 C12         -0.2520    -0.1930     2.3490 ca         1 PU5       0.122500
      7 N4           0.1790    -1.1330     3.1880 nb         1 PU5      -0.219000
      8 C14         -0.5420    -1.1690     4.2950 ca         1 PU5       0.178900
      9 N3          -1.5830    -0.4090     4.6290 nb         1 PU5      -0.303000
     10 C11         -1.3170     0.6690     2.5560 ca         1 PU5      -0.097600
     11 C13         -2.0040     0.5290     3.7740 ca         1 PU5       0.447900
     12 N5          -3.0590     1.2820     4.0990 nv         1 PU5      -1.063900
     13 N1          -1.4720     1.5090     1.4860 nc         1 PU5      -0.558100
     14 C10         -0.5250     1.1670     0.6550 cd         1 PU5       0.405800
     15 C1          -1.8200     0.1140    -1.8110 ca         1 PU5      -0.134000
     16 C6          -0.6440     0.8650    -1.8280 ca         1 PU5      -0.055300
     17 C5           0.2080     0.7730    -2.9160 ca         1 PU5      -0.148000
     18 C2          -2.1160    -0.7140    -2.8790 ca         1 PU5      -0.071000
     19 C3          -1.2640    -0.8140    -3.9750 ca         1 PU5      -0.196000
     20 C4          -0.0930    -0.0620    -3.9940 ca         1 PU5       0.141100
     21 O1           0.8050    -0.0780    -4.9970 os         1 PU5      -0.344100
     22 C7           0.5580    -0.9120    -6.1110 c3         1 PU5       0.148900
     23 H181         5.3570     0.0270     1.8790 hc         1 PU5       0.034367
     24 H182         5.2730     1.2560     0.6220 hc         1 PU5       0.034367
     25 H183         6.0950    -0.2690     0.3070 hc         1 PU5       0.034367
     26 H171         3.9370    -1.5010     0.4740 hc         1 PU5       0.039700
     27 H172         3.8470    -0.2780    -0.7730 hc         1 PU5       0.039700
     28 H161         2.6770     1.2640     0.8020 hc         1 PU5       0.053200
     29 H162         2.7930     0.0640     2.0770 hc         1 PU5       0.053200
     30 H151         1.4150    -1.5230     0.7380 h1         1 PU5       0.070700
     31 H152         1.3240    -0.3670    -0.5720 h1         1 PU5       0.070700
     32 H14         -0.2510    -1.9100     5.0330 h5         1 PU5       0.045100
     33 H9C1         0.7200     2.1470    -0.7760 hc         1 PU5       0.075200
     34 H9C2        -0.9490     2.6750    -0.7220 hc         1 PU5       0.075200
     35 H5N1        -3.4600     1.2160     5.0180 hn         1 PU5       0.504000
     36 H5N2        -3.3420     2.0490     3.5150 hn         1 PU5       0.504000
     37 H5           1.1240     1.3540    -2.9380 ha         1 PU5       0.124000
     38 H2          -3.0260    -1.3000    -2.8680 ha         1 PU5       0.114000
     39 H3          -1.5280    -1.4770    -4.7880 ha         1 PU5       0.118000
     40 H7C1         1.3910    -0.7690    -6.7950 h1         1 PU5       0.041033
     41 H7C2         0.5120    -1.9670    -5.8290 h1         1 PU5       0.041033
     42 H7C3        -0.3690    -0.6440    -6.6240 h1         1 PU5       0.041033
     43 C9          -0.3090     1.7910    -0.6800 c3         1 PU5      -0.047400
     44 H1          -2.4980     0.1780    -0.9690 ha         1 PU5       0.129000
@<TRIPOS>BOND
     1     1     2 1   
     2     1    23 1   
     3     1    24 1   
     4     1    25 1   
     5     2     3 1   
     6     2    26 1   
     7     2    27 1   
     8     3     4 1   
     9     3    28 1   
    10     3    29 1   
    11     4     5 1   
    12     4    30 1   
    13     4    31 1   
    14     5     6 1   
    15     5    14 1   
    16     6     7 ar  
    17     6    10 ar  
    18     7     8 ar  
    19     8     9 ar  
    20     8    32 1   
    21     9    11 ar  
    22    10    11 ar  
    23    10    13 1   
    24    11    12 1   
    25    12    35 1   
    26    12    36 1   
    27    13    14 2   
    28    14    43 1   
    29    15    16 ar  
    30    15    18 ar  
    31    15    44 1   
    32    16    17 ar  
    33    16    43 1   
    34    17    20 ar  
    35    17    37 1   
    36    18    19 ar  
    37    18    38 1   
    38    19    20 ar  
    39    19    39 1   
    40    20    21 1   
    41    21    22 1   
    42    22    40 1   
    43    22    41 1   
    44    22    42 1   
    45    33    43 1   
    46    34    43 1   
@<TRIPOS>SUBSTRUCTURE
     1 PU5         1 TEMP              0 ****  ****    0 ROOT
