@<TRIPOS>MOLECULE
PU5
   44    46     1     0     0
SMALL
No Charge or Current Charge


@<TRIPOS>ATOM
      1 C18          4.7250     0.0390    -0.5350 c3         1 PU5      -0.088100
      2 C17          3.3870    -0.7110    -0.4010 c3         1 PU5      -0.073400
      3 C16          2.3530     0.0480     0.4580 c3         1 PU5      -0.098400
      4 C15          1.0100    -0.7000     0.5730 c3         1 PU5       0.077600
      5 N2          -0.0180     0.0630     1.3080 na         1 PU5      -0.266300
      6 C12         -0.4470    -0.2350     2.5750 ca         1 PU5       0.122500
      7 N4          -0.0620    -1.1910     3.4460 nb         1 PU5      -0.219000
      8 C14         -0.7020    -1.1970     4.6390 ca         1 PU5       0.178900
      9 N3          -1.6780    -0.3470     5.0380 nb         1 PU5      -0.303000
     10 C11         -1.4280     0.6780     2.8810 ca         1 PU5      -0.097600
     11 C13         -2.0400     0.5910     4.1500 ca         1 PU5       0.447900
     12 N5          -3.0170     1.4470     4.5520 nv         1 PU5      -1.063900
     13 N1          -1.6640     1.5850     1.8490 nc         1 PU5      -0.558100
     14 C10         -0.7910     1.1730     0.9110 cd         1 PU5       0.405800
     15 C1          -1.7690     0.1480    -1.8940 ca         1 PU5      -0.134000
     16 C6          -0.6690     0.9870    -1.6380 ca         1 PU5      -0.055300
     17 C5           0.4360     0.9610    -2.5120 ca         1 PU5      -0.148000
     18 C2          -1.7620    -0.7110    -3.0050 ca         1 PU5      -0.071000
     19 C3          -0.6540    -0.7390    -3.8690 ca         1 PU5      -0.196000
     20 C4           0.4530     0.1010    -3.6220 ca         1 PU5       0.141100
     21 O1           1.5710     0.1150    -4.4300 os         1 PU5      -0.344100
     22 C7           1.6960    -0.7390    -5.5810 c3         1 PU5       0.148900
     23 H181         5.1830     0.1970     0.4490 hc         1 PU5       0.034367
     24 H182         4.5760     1.0170    -1.0100 hc         1 PU5       0.034367
     25 H183         5.4260    -0.5370    -1.1510 hc         1 PU5       0.034367
     26 H171         3.5720    -1.6980     0.0410 hc         1 PU5       0.039700
     27 H172         2.9720    -0.8800    -1.4030 hc         1 PU5       0.039700
     28 H161         2.1840     1.0380     0.0190 hc         1 PU5       0.053200
     29 H162         2.7600     0.2110     1.4640 hc         1 PU5       0.053200
     30 H151         1.1780    -1.6590     1.0810 h1         1 PU5       0.070700
     31 H152         0.6300    -0.9350    -0.4280 h1         1 PU5       0.070700
     32 H14         -0.3990    -1.9630     5.3510 h5         1 PU5       0.045100
     33 H9C1         0.2440     2.5020    -0.3910 hc         1 PU5       0.075200
     34 H9C2        -1.4870     2.6140    -0.5100 hc         1 PU5       0.075200
     35 H5N1        -3.2000     1.5270     5.5490 hn         1 PU5       0.504000
     36 H5N2        -3.1510     2.2870     3.9940 hn         1 PU5       0.504000
     37 H5           1.2950     1.6010    -2.3280 ha         1 PU5       0.124000
     38 H2          -2.6160    -1.3590    -3.1950 ha         1 PU5       0.114000
     39 H3          -0.6730    -1.4150    -4.7190 ha         1 PU5       0.118000
     40 H7C1         2.6600    -0.5690    -6.0770 h1         1 PU5       0.041033
     41 H7C2         1.6440    -1.7960    -5.2910 h1         1 PU5       0.041033
     42 H7C3         0.8990    -0.5330    -6.3080 h1         1 PU5       0.041033
     43 C9          -0.6670     1.8940    -0.4130 c3         1 PU5      -0.047400
     44 H1          -2.6290     0.1570    -1.2280 ha         1 PU5       0.129000
@<TRIPOS>BOND
     1     1     2 1   
     2     1    23 1   
     3     1    24 1   
     4     1    25 1   
     5     2     3 1   
     6     2    26 1   
     7     2    27 1   
     8     3     4 1   
     9     3    28 1   
    10     3    29 1   
    11     4     5 1   
    12     4    30 1   
    13     4    31 1   
    14     5     6 1   
    15     5    14 1   
    16     6     7 ar  
    17     6    10 ar  
    18     7     8 ar  
    19     8     9 ar  
    20     8    32 1   
    21     9    11 ar  
    22    10    11 ar  
    23    10    13 1   
    24    11    12 1   
    25    12    35 1   
    26    12    36 1   
    27    13    14 2   
    28    14    43 1   
    29    15    16 ar  
    30    15    18 ar  
    31    15    44 1   
    32    16    17 ar  
    33    16    43 1   
    34    17    20 ar  
    35    17    37 1   
    36    18    19 ar  
    37    18    38 1   
    38    19    20 ar  
    39    19    39 1   
    40    20    21 1   
    41    21    22 1   
    42    22    40 1   
    43    22    41 1   
    44    22    42 1   
    45    33    43 1   
    46    34    43 1   
@<TRIPOS>SUBSTRUCTURE
     1 PU5         1 TEMP              0 ****  ****    0 ROOT
