@<TRIPOS>MOLECULE
PU6
   43    46     1     0     0
SMALL
abcg2


@<TRIPOS>ATOM
      1 C18          5.2530     0.1220     1.6490 c3         1 PU6      -0.088100
      2 C17          4.0050    -0.4510     0.9940 c3         1 PU6      -0.073400
      3 C16          2.7240     0.1750     1.5300 c3         1 PU6      -0.098400
      4 C15          1.4900    -0.4280     0.8750 c3         1 PU6       0.078600
      5 N2           0.2560     0.1530     1.3650 na         1 PU6      -0.267300
      6 C12         -0.3980    -0.2230     2.5000 ca         1 PU6       0.123500
      7 N4          -0.0920    -1.2150     3.3330 nb         1 PU6      -0.218000
      8 C14         -0.9560    -1.2990     4.3310 ca         1 PU6       0.178900
      9 N3          -2.0250    -0.5410     4.5650 nb         1 PU6      -0.299000
     10 C11         -1.4690     0.6490     2.6150 ca         1 PU6      -0.096600
     11 C13         -2.3150     0.4540     3.7190 ca         1 PU6       0.443900
     12 N5          -3.3770     1.2310     3.9640 nv         1 PU6      -1.058900
     13 N1          -1.4740     1.5450     1.5790 nc         1 PU6      -0.557100
     14 C10         -0.4330     1.2260     0.8580 cd         1 PU6       0.403800
     15 C9          -0.0410     1.9120    -0.4050 c3         1 PU6      -0.041400
     16 C1          -0.2500     1.0560    -1.6350 ca         1 PU6      -0.091300
     17 C6           0.7750     0.9550    -2.5880 ca         1 PU6      -0.098000
     18 C5           0.5370     0.1740    -3.6920 ca         1 PU6       0.051100
     19 C2          -1.4500     0.3850    -1.8290 ca         1 PU6      -0.096000
     20 O3           1.3510    -0.0640    -4.7500 os         1 PU6      -0.344100
     21 C3          -1.6800    -0.4080    -2.9590 ca         1 PU6      -0.093000
     22 C4          -0.6610    -0.4950    -3.8750 ca         1 PU6       0.054100
     23 O1          -0.6250    -1.1680    -5.0520 os         1 PU6      -0.342100
     24 C7           0.7200    -1.0910    -5.5040 c5         1 PU6       0.372600
     25 H181         6.1570    -0.3390     1.2500 hc         1 PU6       0.034367
     26 H182         5.3290     1.1980     1.4830 hc         1 PU6       0.034367
     27 H183         5.2450    -0.0450     2.7270 hc         1 PU6       0.034367
     28 H171         4.0570    -0.3030    -0.0890 hc         1 PU6       0.039200
     29 H172         3.9730    -1.5340     1.1510 hc         1 PU6       0.039200
     30 H161         2.6650     0.0310     2.6130 hc         1 PU6       0.053700
     31 H162         2.7410     1.2560     1.3590 hc         1 PU6       0.053700
     32 H151         1.5250    -0.3000    -0.2070 h1         1 PU6       0.069200
     33 H152         1.4460    -1.5020     1.0610 h1         1 PU6       0.069200
     34 H14         -0.7760    -2.0860     5.0560 h5         1 PU6       0.046100
     35 H5N1        -4.0260     0.9700     4.6860 hn         1 PU6       0.501500
     36 H5N2        -3.6880     1.8940     3.2760 hn         1 PU6       0.501500
     37 H9C1        -0.6410     2.8210    -0.4710 hc         1 PU6       0.074700
     38 H9C2         1.0020     2.2340    -0.3530 hc         1 PU6       0.074700
     39 H6           1.7170     1.4730    -2.4570 ha         1 PU6       0.132000
     40 H2          -2.2350     0.4700    -1.0880 ha         1 PU6       0.132000
     41 H3          -2.6200    -0.9250    -3.0990 ha         1 PU6       0.137000
     42 H7C1         1.2270    -2.0460    -5.3290 h2         1 PU6       0.065700
     43 H7C2         0.7390    -0.8360    -6.5640 h2         1 PU6       0.065700
@<TRIPOS>BOND
     1     1     2 1   
     2     1    25 1   
     3     1    26 1   
     4     1    27 1   
     5     2     3 1   
     6     2    28 1   
     7     2    29 1   
     8     3     4 1   
     9     3    30 1   
    10     3    31 1   
    11     4     5 1   
    12     4    32 1   
    13     4    33 1   
    14     5     6 1   
    15     5    14 1   
    16     6     7 ar  
    17     6    10 ar  
    18     7     8 ar  
    19     8     9 ar  
    20     8    34 1   
    21     9    11 ar  
    22    10    11 ar  
    23    10    13 1   
    24    11    12 1   
    25    12    35 1   
    26    12    36 1   
    27    13    14 2   
    28    14    15 1   
    29    15    16 1   
    30    15    37 1   
    31    15    38 1   
    32    16    17 ar  
    33    16    19 ar  
    34    17    18 ar  
    35    17    39 1   
    36    18    20 1   
    37    18    22 ar  
    38    19    21 ar  
    39    19    40 1   
    40    20    24 1   
    41    21    22 ar  
    42    21    41 1   
    43    22    23 1   
    44    23    24 1   
    45    24    42 1   
    46    24    43 1   
@<TRIPOS>SUBSTRUCTURE
     1 PU6         1 TEMP              0 ****  ****    0 ROOT
