@<TRIPOS>MOLECULE
PU6
   43    46     1     0     0
SMALL
No Charge or Current Charge


@<TRIPOS>ATOM
      1 C18          4.9490     0.0110     0.3760 c3         1 PU6      -0.088100
      2 C17          3.5880    -0.7080     0.2980 c3         1 PU6      -0.073400
      3 C16          2.4610     0.0530     1.0270 c3         1 PU6      -0.098400
      4 C15          1.0990    -0.6640     0.9310 c3         1 PU6       0.078600
      5 N2          -0.0030     0.1010     1.5450 na         1 PU6      -0.267300
      6 C12         -0.6110    -0.2280     2.7280 ca         1 PU6       0.123500
      7 N4          -0.3790    -1.2280     3.6030 nb         1 PU6      -0.218000
      8 C14         -1.1850    -1.2620     4.6910 ca         1 PU6       0.178900
      9 N3          -2.1870    -0.3990     4.9830 nb         1 PU6      -0.299000
     10 C11         -1.6040     0.7030     2.9300 ca         1 PU6      -0.096600
     11 C13         -2.3900     0.5870     4.0960 ca         1 PU6       0.443900
     12 N5          -3.3980     1.4540     4.3880 nv         1 PU6      -1.058900
     13 N1          -1.6760     1.6470     1.9070 nc         1 PU6      -0.557100
     14 C10         -0.6890     1.2440     1.0860 cd         1 PU6       0.403800
     15 C9          -0.3680     2.0020    -0.1840 c3         1 PU6      -0.041400
     16 C1          -0.2240     1.1350    -1.4300 ca         1 PU6      -0.091300
     17 C6           0.9910     1.1210    -2.1550 ca         1 PU6      -0.098000
     18 C5           1.0870     0.2830    -3.2720 ca         1 PU6       0.051100
     19 C2          -1.3060     0.3220    -1.8550 ca         1 PU6      -0.096000
     20 O3           2.1750     0.1500    -4.0720 os         1 PU6      -0.344100
     21 C3          -1.1770    -0.5070    -2.9910 ca         1 PU6      -0.093000
     22 C4           0.0440    -0.5010    -3.6740 ca         1 PU6       0.054100
     23 O1           0.3390    -1.2290    -4.7810 os         1 PU6      -0.342100
     24 C7           1.7500    -0.8860    -5.0270 c5         1 PU6       0.372600
     25 H181         5.7160    -0.5660    -0.1540 hc         1 PU6       0.034367
     26 H182         4.8890     1.0050    -0.0830 hc         1 PU6       0.034367
     27 H183         5.2670     0.1280     1.4190 hc         1 PU6       0.034367
     28 H171         3.3150    -0.8380    -0.7570 hc         1 PU6       0.039200
     29 H172         3.6890    -1.7120     0.7290 hc         1 PU6       0.039200
     30 H161         2.7270     0.1780     2.0840 hc         1 PU6       0.053700
     31 H162         2.3760     1.0590     0.5990 hc         1 PU6       0.053700
     32 H151         0.8560    -0.8570    -0.1200 h1         1 PU6       0.069200
     33 H152         1.1760    -1.6420     1.4240 h1         1 PU6       0.069200
     34 H14         -1.0080    -2.0650     5.4040 h5         1 PU6       0.046100
     35 H5N1        -4.1010     1.1600     5.0610 hn         1 PU6       0.501500
     36 H5N2        -3.7090     2.0690     3.6400 hn         1 PU6       0.501500
     37 H9C1        -1.1500     2.7480    -0.3660 hc         1 PU6       0.074700
     38 H9C2         0.5460     2.5830    -0.0170 hc         1 PU6       0.074700
     39 H6           1.8380     1.7330    -1.8550 ha         1 PU6       0.132000
     40 H2          -2.2430     0.3290    -1.3020 ha         1 PU6       0.132000
     41 H3          -2.0000    -1.1340    -3.3250 ha         1 PU6       0.137000
     42 H7C1         2.3660    -1.7820    -4.8830 h2         1 PU6       0.065700
     43 H7C2         1.8650    -0.5120    -6.0520 h2         1 PU6       0.065700
@<TRIPOS>BOND
     1     1     2 1   
     2     1    25 1   
     3     1    26 1   
     4     1    27 1   
     5     2     3 1   
     6     2    28 1   
     7     2    29 1   
     8     3     4 1   
     9     3    30 1   
    10     3    31 1   
    11     4     5 1   
    12     4    32 1   
    13     4    33 1   
    14     5     6 1   
    15     5    14 1   
    16     6     7 ar  
    17     6    10 ar  
    18     7     8 ar  
    19     8     9 ar  
    20     8    34 1   
    21     9    11 ar  
    22    10    11 ar  
    23    10    13 1   
    24    11    12 1   
    25    12    35 1   
    26    12    36 1   
    27    13    14 2   
    28    14    15 1   
    29    15    16 1   
    30    15    37 1   
    31    15    38 1   
    32    16    17 ar  
    33    16    19 ar  
    34    17    18 ar  
    35    17    39 1   
    36    18    20 1   
    37    18    22 ar  
    38    19    21 ar  
    39    19    40 1   
    40    20    24 1   
    41    21    22 ar  
    42    21    41 1   
    43    22    23 1   
    44    23    24 1   
    45    24    42 1   
    46    24    43 1   
@<TRIPOS>SUBSTRUCTURE
     1 PU6         1 TEMP              0 ****  ****    0 ROOT
