@<TRIPOS>MOLECULE
PU7
   48    50     1     0     0
SMALL
bcc


@<TRIPOS>ATOM
      1 C19         -3.1510     1.4680    -0.4660 c3         1 PU7       0.125700
      2 C5          -1.4720     0.8480    -2.6490 ca         1 PU7      -0.181000
      3 O20         -2.4930     0.2250    -0.5440 os         1 PU7      -0.303900
      4 C6          -1.6340     0.0080    -1.5580 ca         1 PU7       0.119100
      5 C4          -0.5540     0.5470    -3.6540 ca         1 PU7      -0.172000
      6 C3           0.2020    -0.6120    -3.5770 ca         1 PU7       0.103100
      7 O2           1.1210    -1.0000    -4.4880 os         1 PU7      -0.317900
      8 C8           1.4200    -0.1180    -5.5470 c3         1 PU7       0.125700
      9 C2           0.0320    -1.4550    -2.4760 ca         1 PU7      -0.127000
     10 C1          -0.8560    -1.1560    -1.4610 ca         1 PU7      -0.088300
     11 C9          -0.9540    -2.0350    -0.2400 c3         1 PU7      -0.032400
     12 C10         -0.6000    -1.3520     1.0420 cc         1 PU7       0.422800
     13 N1          -1.3950    -1.2790     2.0700 nd         1 PU7      -0.549100
     14 C11         -0.6760    -0.6040     3.0180 ca         1 PU7      -0.224200
     15 C13         -0.9540    -0.2160     4.3370 ca         1 PU7       0.766200
     16 N5          -2.1410    -0.4540     4.9220 nv         1 PU7      -0.952500
     17 C12          0.5810    -0.2720     2.5410 ca         1 PU7       0.446800
     18 N4           1.5360     0.3710     3.2030 nb         1 PU7      -0.742000
     19 C14          1.1550     0.6790     4.4300 ca         1 PU7       0.700900
     20 N3          -0.0100     0.4270     5.0220 nb         1 PU7      -0.824000
     21 N2           0.6240    -0.7620     1.2690 na         1 PU7      -0.245000
     22 C15          1.7750    -0.6700     0.3950 c3         1 PU7       0.056300
     23 C16          1.8510     0.6380    -0.3800 c3         1 PU7      -0.098400
     24 C17          2.9970     0.6250    -1.3840 c3         1 PU7      -0.073400
     25 C18          3.0500     1.8910    -2.2270 c3         1 PU7      -0.086100
     26 H191        -3.7190     1.4600     0.4600 h1         1 PU7       0.040367
     27 H192        -2.4460     2.3040    -0.4370 h1         1 PU7       0.040367
     28 H193        -3.8440     1.6250    -1.2980 h1         1 PU7       0.040367
     29 H4          -0.4550     1.2400    -4.4760 ha         1 PU7       0.136000
     30 H8C1         2.2180    -0.5790    -6.1230 h1         1 PU7       0.039367
     31 H8C2         0.5640     0.0410    -6.2080 h1         1 PU7       0.039367
     32 H8C3         1.7680     0.8540    -5.1850 h1         1 PU7       0.039367
     33 H2           0.6430    -2.3490    -2.4100 ha         1 PU7       0.144000
     34 H9C1        -0.3110    -2.9090    -0.3800 hc         1 PU7       0.074700
     35 H9C2        -1.9680    -2.4180    -0.1100 hc         1 PU7       0.074700
     36 H5N1        -2.2370    -0.2870     5.9070 hn         1 PU7       0.444300
     37 H5N2        -2.8020    -1.0610     4.4740 hn         1 PU7       0.444300
     38 H14          1.8830     1.2020     5.0400 h5         1 PU7       0.043100
     39 H151         1.7580    -1.5190    -0.2890 h1         1 PU7       0.062200
     40 H152         2.6630    -0.7840     1.0200 h1         1 PU7       0.062200
     41 H161         1.9730     1.4650     0.3250 hc         1 PU7       0.056700
     42 H162         0.9110     0.8080    -0.9100 hc         1 PU7       0.056700
     43 H171         2.8830    -0.2420    -2.0430 hc         1 PU7       0.040200
     44 H172         3.9490     0.4910    -0.8610 hc         1 PU7       0.040200
     45 H181         3.8660     1.8560    -2.9480 hc         1 PU7       0.031367
     46 H182         2.1190     2.0250    -2.7820 hc         1 PU7       0.031367
     47 H183         3.1910     2.7770    -1.6070 hc         1 PU7       0.031367
     48 H5          -2.0460     1.7590    -2.7430 ha         1 PU7       0.137000
@<TRIPOS>BOND
     1     1     3 1   
     2     1    26 1   
     3     1    27 1   
     4     1    28 1   
     5     2     4 ar  
     6     2     5 ar  
     7     2    48 1   
     8     3     4 1   
     9     4    10 ar  
    10     5     6 ar  
    11     5    29 1   
    12     6     7 1   
    13     6     9 ar  
    14     7     8 1   
    15     8    30 1   
    16     8    31 1   
    17     8    32 1   
    18     9    10 ar  
    19     9    33 1   
    20    10    11 1   
    21    11    12 1   
    22    11    34 1   
    23    11    35 1   
    24    12    13 2   
    25    12    21 1   
    26    13    14 1   
    27    14    15 ar  
    28    14    17 ar  
    29    15    16 1   
    30    15    20 ar  
    31    16    36 1   
    32    16    37 1   
    33    17    18 ar  
    34    17    21 1   
    35    18    19 ar  
    36    19    20 ar  
    37    19    38 1   
    38    21    22 1   
    39    22    23 1   
    40    22    39 1   
    41    22    40 1   
    42    23    24 1   
    43    23    41 1   
    44    23    42 1   
    45    24    25 1   
    46    24    43 1   
    47    24    44 1   
    48    25    45 1   
    49    25    46 1   
    50    25    47 1   
@<TRIPOS>SUBSTRUCTURE
     1 PU7         1 TEMP              0 ****  ****    0 ROOT
