@<TRIPOS>MOLECULE
PU7
   48    50     1     0     0
SMALL
No Charge or Current Charge


@<TRIPOS>ATOM
      1 C19         -3.3520     1.5800    -0.6290 c3         1 PU7       0.148900
      2 C5          -1.4730     0.8760    -2.7250 ca         1 PU7      -0.163000
      3 O20         -2.5760     0.3700    -0.6050 os         1 PU7      -0.327100
      4 C6          -1.6670     0.0500    -1.5960 ca         1 PU7       0.119100
      5 C4          -0.5310     0.5280    -3.7090 ca         1 PU7      -0.154000
      6 C3           0.2190    -0.6600    -3.5780 ca         1 PU7       0.103100
      7 O2           1.1650    -1.0470    -4.5060 os         1 PU7      -0.341100
      8 C8           1.5060    -0.2320    -5.6410 c3         1 PU7       0.148900
      9 C2           0.0190    -1.4860    -2.4620 ca         1 PU7      -0.109000
     10 C1          -0.9090    -1.1350    -1.4590 ca         1 PU7      -0.088300
     11 C9          -1.0580    -2.0240    -0.2210 c3         1 PU7      -0.032400
     12 C10         -0.6300    -1.3630     1.0690 cc         1 PU7       0.422800
     13 N1          -1.3990    -1.2910     2.1730 nd         1 PU7      -0.549100
     14 C11         -0.5860    -0.6220     3.0980 ca         1 PU7      -0.093600
     15 C13         -0.8620    -0.2530     4.4310 ca         1 PU7       0.437900
     16 N5          -2.0500    -0.5210     5.0380 nv         1 PU7      -1.062900
     17 C12          0.6480    -0.3080     2.5840 ca         1 PU7       0.118500
     18 N4           1.5900     0.3320     3.3060 nb         1 PU7      -0.216000
     19 C14          1.2390     0.6460     4.5760 ca         1 PU7       0.174900
     20 N3           0.0540     0.3830     5.1800 nb         1 PU7      -0.298000
     21 N2           0.6260    -0.7840     1.3050 na         1 PU7      -0.274300
     22 C15          1.7940    -0.6950     0.4090 c3         1 PU7       0.085600
     23 C16          1.8870     0.6590    -0.3270 c3         1 PU7      -0.098400
     24 C17          3.0000     0.6870    -1.3950 c3         1 PU7      -0.073400
     25 C18          3.0340     2.0040    -2.1940 c3         1 PU7      -0.086100
     26 H191        -3.9960     1.6350     0.2580 h1         1 PU7       0.040367
     27 H192        -2.6990     2.4620    -0.6300 h1         1 PU7       0.040367
     28 H193        -3.9950     1.6140    -1.5180 h1         1 PU7       0.040367
     29 H4          -0.3990     1.1880    -4.5620 ha         1 PU7       0.118000
     30 H8C1         2.2880    -0.7170    -6.2360 h1         1 PU7       0.039367
     31 H8C2         0.6330    -0.0780    -6.2870 h1         1 PU7       0.039367
     32 H8C3         1.8830     0.7470    -5.3170 h1         1 PU7       0.039367
     33 H2           0.6070    -2.3950    -2.3690 ha         1 PU7       0.126000
     34 H9C1        -0.4840    -2.9490    -0.3410 hc         1 PU7       0.074700
     35 H9C2        -2.1040    -2.3410    -0.1310 hc         1 PU7       0.074700
     36 H5N1        -2.0850    -0.4980     6.0530 hn         1 PU7       0.499500
     37 H5N2        -2.6690    -1.1800     4.5710 hn         1 PU7       0.499500
     38 H14          1.9880     1.1630     5.1750 h5         1 PU7       0.043100
     39 H151         1.7390    -1.5090    -0.3230 h1         1 PU7       0.062200
     40 H152         2.7080    -0.8510     0.9970 h1         1 PU7       0.062200
     41 H161         2.0610     1.4560     0.4060 hc         1 PU7       0.056700
     42 H162         0.9270     0.8790    -0.8070 hc         1 PU7       0.056700
     43 H171         2.8550    -0.1460    -2.0950 hc         1 PU7       0.040200
     44 H172         3.9730     0.5330    -0.9120 hc         1 PU7       0.040200
     45 H181         3.8390     1.9790    -2.9380 hc         1 PU7       0.031367
     46 H182         2.0850     2.1610    -2.7210 hc         1 PU7       0.031367
     47 H183         3.2070     2.8580    -1.5280 hc         1 PU7       0.031367
     48 H5          -2.0380     1.7950    -2.8550 ha         1 PU7       0.119000
@<TRIPOS>BOND
     1     1     3 1   
     2     1    26 1   
     3     1    27 1   
     4     1    28 1   
     5     2     4 ar  
     6     2     5 ar  
     7     2    48 1   
     8     3     4 1   
     9     4    10 ar  
    10     5     6 ar  
    11     5    29 1   
    12     6     7 1   
    13     6     9 ar  
    14     7     8 1   
    15     8    30 1   
    16     8    31 1   
    17     8    32 1   
    18     9    10 ar  
    19     9    33 1   
    20    10    11 1   
    21    11    12 1   
    22    11    34 1   
    23    11    35 1   
    24    12    13 2   
    25    12    21 1   
    26    13    14 1   
    27    14    15 ar  
    28    14    17 ar  
    29    15    16 1   
    30    15    20 ar  
    31    16    36 1   
    32    16    37 1   
    33    17    18 ar  
    34    17    21 1   
    35    18    19 ar  
    36    19    20 ar  
    37    19    38 1   
    38    21    22 1   
    39    22    23 1   
    40    22    39 1   
    41    22    40 1   
    42    23    24 1   
    43    23    41 1   
    44    23    42 1   
    45    24    25 1   
    46    24    43 1   
    47    24    44 1   
    48    25    45 1   
    49    25    46 1   
    50    25    47 1   
@<TRIPOS>SUBSTRUCTURE
     1 PU7         1 TEMP              0 ****  ****    0 ROOT
