@<TRIPOS>MOLECULE
PU8
   52    54     1     0     0
SMALL
bcc


@<TRIPOS>ATOM
      1 C19          2.5740    -1.0970    -3.7380 c3         1 PU8       0.127700
      2 O3           1.5700    -1.4500    -2.7900 os         1 PU8      -0.321900
      3 C5           0.7700    -0.4290    -2.4150 ca         1 PU8       0.126100
      4 C6           1.0640     0.3190    -1.2740 ca         1 PU8      -0.016600
      5 C4          -0.3640    -0.1330    -3.1620 ca         1 PU8       0.056100
      6 O1          -0.6260    -0.8240    -4.2960 os         1 PU8      -0.316900
      7 C7          -1.4590    -1.9640    -4.1140 c3         1 PU8       0.125700
      8 C3          -1.2150     0.9030    -2.7530 ca         1 PU8       0.135100
      9 O2          -2.2910     1.1170    -3.5250 os         1 PU8      -0.296900
     10 C8          -3.2120     2.1140    -3.1310 c3         1 PU8       0.119700
     11 C2          -0.9020     1.6310    -1.6130 ca         1 PU8      -0.214000
     12 C1           0.2270     1.3400    -0.8500 ca         1 PU8      -0.038300
     13 C9           0.5080     2.1430     0.3960 c3         1 PU8      -0.041400
     14 C10          0.4760     1.3620     1.6690 cc         1 PU8       0.407800
     15 N1           1.4720     1.2940     2.5090 nd         1 PU8      -0.547100
     16 C11          1.0180     0.5030     3.5290 ca         1 PU8      -0.226200
     17 C13          1.6020     0.0440     4.7220 ca         1 PU8       0.779200
     18 N5           2.8540     0.3470     5.0770 nv         1 PU8      -0.955500
     19 C12         -0.2840     0.0960     3.2860 ca         1 PU8       0.451800
     20 N4          -1.0310    -0.6770     4.0730 nb         1 PU8      -0.748000
     21 C14         -0.3770    -1.0440     5.1610 ca         1 PU8       0.705900
     22 N3           0.8670    -0.7380     5.5220 nb         1 PU8      -0.829000
     23 N2          -0.6240     0.6590     2.0930 na         1 PU8      -0.240000
     24 C15         -1.9220     0.5300     1.4590 c3         1 PU8       0.058300
     25 C16         -2.0870    -0.7760     0.6960 c3         1 PU8      -0.099400
     26 C17         -3.4710    -0.8850     0.0700 c3         1 PU8      -0.070400
     27 C18         -3.6810    -2.2040    -0.6600 c3         1 PU8      -0.088100
     28 CL           2.5000    -0.0760    -0.3980 cl         1 PU8      -0.072400
     29 H191         3.1460    -2.0000    -3.9430 h1         1 PU8       0.043033
     30 H192         2.1360    -0.7370    -4.6710 h1         1 PU8       0.043033
     31 H193         3.2490    -0.3350    -3.3420 h1         1 PU8       0.043033
     32 H7C1        -1.5620    -2.4430    -5.0860 h1         1 PU8       0.039700
     33 H7C2        -1.0180    -2.6770    -3.4150 h1         1 PU8       0.039700
     34 H7C3        -2.4530    -1.6830    -3.7570 h1         1 PU8       0.039700
     35 H8C1        -4.0150     2.0990    -3.8630 h1         1 PU8       0.043367
     36 H8C2        -3.6330     1.9100    -2.1430 h1         1 PU8       0.043367
     37 H8C3        -2.7600     3.1090    -3.1240 h1         1 PU8       0.043367
     38 H2          -1.5400     2.4420    -1.2860 ha         1 PU8       0.139000
     39 H9C1        -0.2120     2.9640     0.4530 hc         1 PU8       0.077200
     40 H9C2         1.4970     2.6010     0.3380 hc         1 PU8       0.077200
     41 H5N1         3.2200     0.0320     5.9590 hn         1 PU8       0.450300
     42 H5N2         3.4080     0.9820     4.5310 hn         1 PU8       0.450300
     43 H14         -0.9200    -1.6780     5.8550 h5         1 PU8       0.045100
     44 H151        -2.6780     0.6040     2.2420 h1         1 PU8       0.058700
     45 H152        -2.0640     1.3850     0.8000 h1         1 PU8       0.058700
     46 H161        -1.9270    -1.6120     1.3820 hc         1 PU8       0.061200
     47 H162        -1.3220    -0.8500    -0.0830 hc         1 PU8       0.061200
     48 H171        -3.6230    -0.0560    -0.6280 hc         1 PU8       0.033700
     49 H172        -4.2340    -0.7720     0.8460 hc         1 PU8       0.033700
     50 H181        -4.6700    -2.2520    -1.1160 hc         1 PU8       0.034033
     51 H182        -2.9440    -2.3360    -1.4540 hc         1 PU8       0.034033
     52 H183        -3.5870    -3.0520     0.0200 hc         1 PU8       0.034033
@<TRIPOS>BOND
     1     1     2 1   
     2     1    29 1   
     3     1    30 1   
     4     1    31 1   
     5     2     3 1   
     6     3     4 ar  
     7     3     5 ar  
     8     4    12 ar  
     9     4    28 1   
    10     5     6 1   
    11     5     8 ar  
    12     6     7 1   
    13     7    32 1   
    14     7    33 1   
    15     7    34 1   
    16     8     9 1   
    17     8    11 ar  
    18     9    10 1   
    19    10    35 1   
    20    10    36 1   
    21    10    37 1   
    22    11    12 ar  
    23    11    38 1   
    24    12    13 1   
    25    13    14 1   
    26    13    39 1   
    27    13    40 1   
    28    14    15 2   
    29    14    23 1   
    30    15    16 1   
    31    16    17 ar  
    32    16    19 ar  
    33    17    18 1   
    34    17    22 ar  
    35    18    41 1   
    36    18    42 1   
    37    19    20 ar  
    38    19    23 1   
    39    20    21 ar  
    40    21    22 ar  
    41    21    43 1   
    42    23    24 1   
    43    24    25 1   
    44    24    44 1   
    45    24    45 1   
    46    25    26 1   
    47    25    46 1   
    48    25    47 1   
    49    26    27 1   
    50    26    48 1   
    51    26    49 1   
    52    27    50 1   
    53    27    51 1   
    54    27    52 1   
@<TRIPOS>SUBSTRUCTURE
     1 PU8         1 TEMP              0 ****  ****    0 ROOT
