@<TRIPOS>MOLECULE
PU8
   52    54     1     0     0
SMALL
No Charge or Current Charge


@<TRIPOS>ATOM
      1 C19          1.9720    -1.8880    -3.9720 c3         1 PU8       0.150900
      2 O3           1.9850    -1.0950    -2.7720 os         1 PU8      -0.345100
      3 C5           1.0000    -0.1790    -2.4040 ca         1 PU8       0.126100
      4 C6           1.2280     0.5320    -1.2030 ca         1 PU8       0.075000
      5 C4          -0.1940     0.0700    -3.1470 ca         1 PU8       0.056100
      6 O1          -0.4550    -0.5910    -4.3340 os         1 PU8      -0.340100
      7 C7          -1.5670    -1.5000    -4.4330 c3         1 PU8       0.148900
      8 C3          -1.1110     1.0510    -2.6890 ca         1 PU8       0.135100
      9 O2          -2.2360     1.3240    -3.4500 os         1 PU8      -0.320100
     10 C8          -3.2310     2.2850    -3.0580 c3         1 PU8       0.142900
     11 C2          -0.8540     1.7520    -1.4930 ca         1 PU8      -0.196000
     12 C1           0.3020     1.4920    -0.7370 ca         1 PU8      -0.038300
     13 C9           0.5350     2.2710     0.5620 c3         1 PU8      -0.041400
     14 C10          0.4640     1.4380     1.8200 cc         1 PU8       0.407800
     15 N1           1.4290     1.4100     2.7590 nd         1 PU8      -0.547100
     16 C11          0.9210     0.5350     3.7280 ca         1 PU8      -0.095600
     17 C13          1.4970     0.1100     4.9430 ca         1 PU8       0.450900
     18 N5           2.7210     0.5300     5.3620 nv         1 PU8      -1.065900
     19 C12         -0.3230     0.0550     3.4030 ca         1 PU8       0.123500
     20 N4          -1.0000    -0.7960     4.1990 nb         1 PU8      -0.222000
     21 C14         -0.3720    -1.1490     5.3460 ca         1 PU8       0.179900
     22 N3           0.8500    -0.7350     5.7620 nb         1 PU8      -0.303000
     23 N2          -0.6180     0.6320     2.2000 na         1 PU8      -0.269300
     24 C15         -1.9000     0.4060     1.5120 c3         1 PU8       0.087600
     25 C16         -1.9140    -0.8970     0.6860 c3         1 PU8      -0.099400
     26 C17         -3.1990    -1.0630    -0.1510 c3         1 PU8      -0.070400
     27 C18         -3.2290    -2.3830    -0.9440 c3         1 PU8      -0.088100
     28 Cl           2.7100     0.2140    -0.2850 cl         1 PU8      -0.164000
     29 H191         2.8820    -2.4980    -4.0290 h1         1 PU8       0.043033
     30 H192         1.1130    -2.5700    -3.9830 h1         1 PU8       0.043033
     31 H193         1.9410    -1.2510    -4.8650 h1         1 PU8       0.043033
     32 H7C1        -1.6290    -1.9120    -5.4480 h1         1 PU8       0.039700
     33 H7C2        -1.4400    -2.3370    -3.7360 h1         1 PU8       0.039700
     34 H7C3        -2.5190    -1.0060    -4.2100 h1         1 PU8       0.039700
     35 H8C1        -4.0350     2.3250    -3.8030 h1         1 PU8       0.043367
     36 H8C2        -3.6770     2.0130    -2.0920 h1         1 PU8       0.043367
     37 H8C3        -2.7940     3.2890    -2.9760 h1         1 PU8       0.043367
     38 H2          -1.5460     2.5090    -1.1370 ha         1 PU8       0.121000
     39 H9C1        -0.1920     3.0860     0.6540 hc         1 PU8       0.077200
     40 H9C2         1.5100     2.7690     0.5150 hc         1 PU8       0.077200
     41 H5N1         2.9460     0.4350     6.3490 hn         1 PU8       0.505500
     42 H5N2         3.1270     1.3250     4.8750 hn         1 PU8       0.505500
     43 H14         -0.9040    -1.8360     6.0020 h5         1 PU8       0.045100
     44 H151        -2.7030     0.3690     2.2600 h1         1 PU8       0.058700
     45 H152        -2.1090     1.2620     0.8580 h1         1 PU8       0.058700
     46 H161        -1.8070    -1.7510     1.3660 hc         1 PU8       0.061200
     47 H162        -1.0470    -0.9140     0.0170 hc         1 PU8       0.061200
     48 H171        -3.2860    -0.2240    -0.8520 hc         1 PU8       0.033700
     49 H172        -4.0750    -1.0220     0.5090 hc         1 PU8       0.033700
     50 H181        -4.1330    -2.4380    -1.5620 hc         1 PU8       0.034033
     51 H182        -2.3560    -2.4580    -1.6010 hc         1 PU8       0.034033
     52 H183        -3.2240    -3.2430    -0.2640 hc         1 PU8       0.034033
@<TRIPOS>BOND
     1     1     2 1   
     2     1    29 1   
     3     1    30 1   
     4     1    31 1   
     5     2     3 1   
     6     3     4 ar  
     7     3     5 ar  
     8     4    12 ar  
     9     4    28 1   
    10     5     6 1   
    11     5     8 ar  
    12     6     7 1   
    13     7    32 1   
    14     7    33 1   
    15     7    34 1   
    16     8     9 1   
    17     8    11 ar  
    18     9    10 1   
    19    10    35 1   
    20    10    36 1   
    21    10    37 1   
    22    11    12 ar  
    23    11    38 1   
    24    12    13 1   
    25    13    14 1   
    26    13    39 1   
    27    13    40 1   
    28    14    15 2   
    29    14    23 1   
    30    15    16 1   
    31    16    17 ar  
    32    16    19 ar  
    33    17    18 1   
    34    17    22 ar  
    35    18    41 1   
    36    18    42 1   
    37    19    20 ar  
    38    19    23 1   
    39    20    21 ar  
    40    21    22 ar  
    41    21    43 1   
    42    23    24 1   
    43    24    25 1   
    44    24    44 1   
    45    24    45 1   
    46    25    26 1   
    47    25    46 1   
    48    25    47 1   
    49    26    27 1   
    50    26    48 1   
    51    26    49 1   
    52    27    50 1   
    53    27    51 1   
    54    27    52 1   
@<TRIPOS>SUBSTRUCTURE
     1 PU8         1 TEMP              0 ****  ****    0 ROOT
