@<TRIPOS>MOLECULE
PU9
   51    53     1     0     0
SMALL
bcc


@<TRIPOS>ATOM
      1 CL          -2.2050    -0.5240    -1.5080 cl         1 PU9      -0.073400
      2 C13         -0.4860    -0.4390    -1.6760 ca         1 PU9      -0.022600
      3 C15          0.0360     0.3380    -2.7120 ca         1 PU9       0.127100
      4 O3          -0.7880     1.0190    -3.5360 os         1 PU9      -0.322900
      5 C20         -1.0990     0.3420    -4.7520 c3         1 PU9       0.128700
      6 C17          1.4130     0.4260    -2.8810 ca         1 PU9       0.052100
      7 O2           1.9250     1.1500    -3.9030 os         1 PU9      -0.315900
      8 C19          2.1890     2.5120    -3.5800 c3         1 PU9       0.125700
      9 C16          2.2680    -0.2560    -2.0050 ca         1 PU9       0.135100
     10 O1           3.5800    -0.1130    -2.2370 os         1 PU9      -0.297900
     11 C18          4.4930    -0.8170    -1.4170 c3         1 PU9       0.116700
     12 C14          1.7240    -1.0160    -0.9760 ca         1 PU9      -0.215000
     13 C12          0.3460    -1.1020    -0.7880 ca         1 PU9      -0.040300
     14 C6          -0.1930    -1.9120     0.3610 c3         1 PU9      -0.041400
     15 C5          -1.0640    -1.1800     1.3320 cc         1 PU9       0.410800
     16 N3          -2.1500    -1.7010     1.8340 nd         1 PU9      -0.554100
     17 C2          -2.6280    -0.7570     2.7000 ca         1 PU9      -0.225200
     18 C3          -3.7580    -0.7060     3.5350 ca         1 PU9       0.780200
     19 N5          -4.6430    -1.7030     3.6130 nv         1 PU9      -0.956500
     20 C1          -1.8030     0.3540     2.7120 ca         1 PU9       0.453800
     21 N1          -1.9760     1.4580     3.4370 nb         1 PU9      -0.750000
     22 C4          -3.0660     1.3900     4.1810 ca         1 PU9       0.707900
     23 N2          -3.9460     0.3960     4.2700 nb         1 PU9      -0.829000
     24 N4          -0.8000     0.0740     1.8310 na         1 PU9      -0.238000
     25 C7           0.3180     0.9570     1.5550 c3         1 PU9       0.046300
     26 C8           1.6210     0.4750     2.1760 c3         1 PU9      -0.092400
     27 C9           2.7780     1.3570     1.7050 c3         1 PU9       0.004700
     28 C10          4.0660     0.9070     2.2110 c1         1 PU9      -0.148100
     29 C11          5.1220     0.5130     2.6320 c1         1 PU9      -0.155500
     30 H201        -1.7800     0.9840    -5.3050 h1         1 PU9       0.043700
     31 H202        -0.2060     0.1700    -5.3540 h1         1 PU9       0.043700
     32 H203        -1.5890    -0.6150    -4.5600 h1         1 PU9       0.043700
     33 H191         2.5700     2.9860    -4.4820 h1         1 PU9       0.039700
     34 H192         1.2810     3.0320    -3.2670 h1         1 PU9       0.039700
     35 H193         2.9390     2.6020    -2.7910 h1         1 PU9       0.039700
     36 H181         5.4860    -0.5840    -1.7910 h1         1 PU9       0.046033
     37 H182         4.4340    -0.5040    -0.3710 h1         1 PU9       0.046033
     38 H183         4.3390    -1.8970    -1.4710 h1         1 PU9       0.046033
     39 H14          2.3660    -1.5500    -0.2890 ha         1 PU9       0.144000
     40 H6C1        -0.7880    -2.7480    -0.0110 hc         1 PU9       0.078700
     41 H6C2         0.6480    -2.3550     0.9000 hc         1 PU9       0.078700
     42 H5N1        -5.4200    -1.6440     4.2470 hn         1 PU9       0.450800
     43 H5N2        -4.5010    -2.5620     3.1110 hn         1 PU9       0.450800
     44 H4          -3.2760     2.2550     4.8020 h5         1 PU9       0.045100
     45 H7C1         0.4260     1.0780     0.4780 h1         1 PU9       0.074700
     46 H7C2         0.0520     1.9350     1.9550 h1         1 PU9       0.074700
     47 H8C1         1.5480     0.5000     3.2640 hc         1 PU9       0.057200
     48 H8C2         1.8200    -0.5610     1.8940 hc         1 PU9       0.057200
     49 H9C1         2.6100     2.3930     2.0110 hc         1 PU9       0.060700
     50 H9C2         2.8080     1.3660     0.6110 hc         1 PU9       0.060700
     51 H11          6.0590     0.1710     3.0090 ha         1 PU9       0.168500
@<TRIPOS>BOND
     1     1     2 1   
     2     2     3 ar  
     3     2    13 ar  
     4     3     4 1   
     5     3     6 ar  
     6     4     5 1   
     7     5    30 1   
     8     5    31 1   
     9     5    32 1   
    10     6     7 1   
    11     6     9 ar  
    12     7     8 1   
    13     8    33 1   
    14     8    34 1   
    15     8    35 1   
    16     9    10 1   
    17     9    12 ar  
    18    10    11 1   
    19    11    36 1   
    20    11    37 1   
    21    11    38 1   
    22    12    13 ar  
    23    12    39 1   
    24    13    14 1   
    25    14    15 1   
    26    14    40 1   
    27    14    41 1   
    28    15    16 2   
    29    15    24 1   
    30    16    17 1   
    31    17    18 ar  
    32    17    20 ar  
    33    18    19 1   
    34    18    23 ar  
    35    19    42 1   
    36    19    43 1   
    37    20    21 ar  
    38    20    24 1   
    39    21    22 ar  
    40    22    23 ar  
    41    22    44 1   
    42    24    25 1   
    43    25    26 1   
    44    25    45 1   
    45    25    46 1   
    46    26    27 1   
    47    26    47 1   
    48    26    48 1   
    49    27    28 1   
    50    27    49 1   
    51    27    50 1   
    52    28    29 3   
    53    29    51 1   
@<TRIPOS>SUBSTRUCTURE
     1 PU9         1 TEMP              0 ****  ****    0 ROOT
