@<TRIPOS>MOLECULE
PU9
   51    53     1     0     0
SMALL
No Charge or Current Charge


@<TRIPOS>ATOM
      1 Cl          -2.4020    -1.0240    -1.5540 cl         1 PU9      -0.165000
      2 C13         -0.6540    -0.7940    -1.7290 ca         1 PU9       0.069000
      3 C15         -0.1640    -0.0590    -2.8320 ca         1 PU9       0.127100
      4 O3          -1.1240     0.4390    -3.7130 os         1 PU9      -0.346100
      5 C20         -0.8410     1.1600    -4.9250 c3         1 PU9       0.151900
      6 C17          1.2440     0.1400    -2.9700 ca         1 PU9       0.052100
      7 O2           1.7630     0.8730    -4.0230 os         1 PU9      -0.339100
      8 C19          2.4860     2.0940    -3.7760 c3         1 PU9       0.148900
      9 C16          2.1290    -0.4490    -2.0290 ca         1 PU9       0.135100
     10 O1           3.4950    -0.3100    -2.2130 os         1 PU9      -0.321100
     11 C18          4.4670    -0.8870    -1.3230 c3         1 PU9       0.139900
     12 C14          1.6130    -1.1820    -0.9420 ca         1 PU9      -0.197000
     13 C12          0.2270    -1.3420    -0.7710 ca         1 PU9      -0.040300
     14 C6          -0.2870    -2.1060     0.4520 c3         1 PU9      -0.041400
     15 C5          -1.1230    -1.3020     1.4240 cc         1 PU9       0.410800
     16 N3          -2.2040    -1.8040     2.0510 nd         1 PU9      -0.554100
     17 C2          -2.6370    -0.7500     2.8650 ca         1 PU9      -0.094600
     18 C3          -3.7320    -0.6950     3.7520 ca         1 PU9       0.451900
     19 N5          -4.5770    -1.7440     3.9410 nv         1 PU9      -1.066900
     20 C1          -1.8410     0.3620     2.7520 ca         1 PU9       0.125500
     21 N1          -2.0720     1.4870     3.4580 nb         1 PU9      -0.224000
     22 C4          -3.1430     1.4500     4.2870 ca         1 PU9       0.181900
     23 N2          -3.9890     0.4080     4.4720 nb         1 PU9      -0.303000
     24 N4          -0.8800     0.0180     1.8430 na         1 PU9      -0.267300
     25 C7           0.1930     0.9540     1.4470 c3         1 PU9       0.075600
     26 C8           1.5560     0.6140     2.0830 c3         1 PU9      -0.092400
     27 C9           2.6950     1.5200     1.5660 c3         1 PU9       0.004700
     28 C10          4.0000     1.1600     2.1340 c1         1 PU9      -0.148100
     29 C11          5.0760     0.8390     2.5830 c1         1 PU9      -0.243000
     30 H201        -1.7760     1.3950    -5.4500 h1         1 PU9       0.043700
     31 H202        -0.3350     2.1090    -4.7090 h1         1 PU9       0.043700
     32 H203        -0.2180     0.5630    -5.6020 h1         1 PU9       0.043700
     33 H191         2.7520     2.5740    -4.7250 h1         1 PU9       0.039700
     34 H192         1.8700     2.7950    -3.1990 h1         1 PU9       0.039700
     35 H193         3.4140     1.9130    -3.2210 h1         1 PU9       0.039700
     36 H181         5.4820    -0.6450    -1.6610 h1         1 PU9       0.046033
     37 H182         4.3470    -0.4950    -0.3050 h1         1 PU9       0.046033
     38 H183         4.3710    -1.9800    -1.2940 h1         1 PU9       0.046033
     39 H14          2.2810    -1.6310    -0.2130 ha         1 PU9       0.126000
     40 H6C1        -0.8730    -2.9670     0.1100 hc         1 PU9       0.078700
     41 H6C2         0.5490    -2.5400     1.0100 hc         1 PU9       0.078700
     42 H5N1        -5.1430    -1.7530     4.7860 hn         1 PU9       0.506000
     43 H5N2        -4.2780    -2.6470     3.5810 hn         1 PU9       0.506000
     44 H4          -3.3430     2.3510     4.8650 h5         1 PU9       0.045100
     45 H7C1         0.2820     0.9580     0.3550 h1         1 PU9       0.074700
     46 H7C2        -0.0900     1.9730     1.7400 h1         1 PU9       0.074700
     47 H8C1         1.4760     0.7100     3.1730 hc         1 PU9       0.057200
     48 H8C2         1.8050    -0.4330     1.8750 hc         1 PU9       0.057200
     49 H9C1         2.4750     2.5670     1.8110 hc         1 PU9       0.060700
     50 H9C2         2.7540     1.4510     0.4720 hc         1 PU9       0.060700
     51 H11          6.0270     0.5600     2.9930 ha         1 PU9       0.256000
@<TRIPOS>BOND
     1     1     2 1   
     2     2     3 ar  
     3     2    13 ar  
     4     3     4 1   
     5     3     6 ar  
     6     4     5 1   
     7     5    30 1   
     8     5    31 1   
     9     5    32 1   
    10     6     7 1   
    11     6     9 ar  
    12     7     8 1   
    13     8    33 1   
    14     8    34 1   
    15     8    35 1   
    16     9    10 1   
    17     9    12 ar  
    18    10    11 1   
    19    11    36 1   
    20    11    37 1   
    21    11    38 1   
    22    12    13 ar  
    23    12    39 1   
    24    13    14 1   
    25    14    15 1   
    26    14    40 1   
    27    14    41 1   
    28    15    16 2   
    29    15    24 1   
    30    16    17 1   
    31    17    18 ar  
    32    17    20 ar  
    33    18    19 1   
    34    18    23 ar  
    35    19    42 1   
    36    19    43 1   
    37    20    21 ar  
    38    20    24 1   
    39    21    22 ar  
    40    22    23 ar  
    41    22    44 1   
    42    24    25 1   
    43    25    26 1   
    44    25    45 1   
    45    25    46 1   
    46    26    27 1   
    47    26    47 1   
    48    26    48 1   
    49    27    28 1   
    50    27    49 1   
    51    27    50 1   
    52    28    29 3   
    53    29    51 1   
@<TRIPOS>SUBSTRUCTURE
     1 PU9         1 TEMP              0 ****  ****    0 ROOT
