@<TRIPOS>MOLECULE
PUB
   83    86     1     0     0
SMALL
abcg2


@<TRIPOS>ATOM
      1 CHC         38.1730    -6.7380   -20.9250 c3         1 PUB      -0.089700
      2 NC          38.2940    -9.1860   -20.8810 nc         1 PUB      -0.626300
      3 C1C         38.4170   -10.2320   -21.8060 cc         1 PUB      -0.026400
      4 C2C         38.4060    -9.6930   -23.1540 cc         1 PUB      -0.016200
      5 C3C         38.2820    -8.3300   -23.0160 cd         1 PUB      -0.298800
      6 C4C         38.2230    -8.0770   -21.5890 cd         1 PUB       0.389600
      7 CMC         38.2090    -7.2920   -24.0880 c3         1 PUB      -0.011900
      8 CAC         38.4570   -10.4980   -24.4120 c3         1 PUB      -0.022200
      9 CBC         37.0650   -10.9470   -24.8820 c3         1 PUB      -0.192400
     10 CGC         37.0710   -11.8780   -26.1100 c          1 PUB       0.706000
     11 O1C         36.1350   -11.7280   -26.9400 o          1 PUB      -0.745000
     12 O2C         37.9850   -12.7400   -26.1810 o          1 PUB      -0.745000
     13 ND          40.5470    -6.1890   -21.4300 ns         1 PUB      -0.494900
     14 C1D         39.5590    -6.3320   -20.3790 c5         1 PUB       0.132900
     15 C2D         39.5840    -4.9710   -19.7300 c2         1 PUB      -0.098400
     16 C3D         40.4560    -4.1730   -20.3670 ce         1 PUB      -0.186400
     17 C4D         41.0780    -4.9420   -21.4790 c          1 PUB       0.553200
     18 CMD         38.7340    -4.6700   -18.5460 c3         1 PUB      -0.044900
     19 CBD         42.1550    -2.6760   -19.2720 c3         1 PUB      -0.085100
     20 OD          41.9110    -4.5390   -22.2940 o          1 PUB      -0.580000
     21 NA          41.1680   -11.7430   -16.5260 ns         1 PUB      -0.487900
     22 C1A         41.9810   -11.7310   -15.4430 c          1 PUB       0.544200
     23 C2A         41.4580   -10.6880   -14.5170 ce         1 PUB      -0.175400
     24 C3A         40.3990   -10.0970   -15.0910 c2         1 PUB      -0.131400
     25 C4A         40.1330   -10.7310   -16.4340 c5         1 PUB       0.132900
     26 CAA         39.5460    -8.9850   -14.5770 c3         1 PUB      -0.024200
     27 CAD         40.8510    -2.7630   -20.0770 c3         1 PUB      -0.010200
     28 NB          38.4320   -11.2470   -19.0130 na         1 PUB      -0.084000
     29 C1B         38.5580   -11.9790   -17.8820 cc         1 PUB      -0.149300
     30 C2B         38.7790   -13.3120   -18.2440 cd         1 PUB      -0.125300
     31 C3B         38.8310   -13.3560   -19.6520 cd         1 PUB      -0.026300
     32 C4B         38.5950   -12.0490   -20.1250 cd         1 PUB      -0.205800
     33 CHB         38.5650   -11.5470   -21.4390 cf         1 PUB       0.074800
     34 CGB         41.6570   -14.3310   -19.4380 c          1 PUB       0.712000
     35 O1B         41.9310   -15.4340   -18.9020 o          1 PUB      -0.749500
     36 O2B         41.9730   -13.1940   -18.9830 o          1 PUB      -0.749500
     37 HHC1        37.8320    -5.9690   -21.6200 hc         1 PUB       0.050700
     38 HHC2        37.4760    -6.7740   -20.0850 hc         1 PUB       0.050700
     39 HMC1        37.2340    -6.7950   -24.1010 hc         1 PUB       0.028033
     40 HMC2        38.9610    -6.5110   -23.9470 hc         1 PUB       0.028033
     41 HMC3        38.3660    -7.7340   -25.0730 hc         1 PUB       0.028033
     42 HAC1        38.9280    -9.9120   -25.2060 hc         1 PUB       0.054200
     43 HAC2        39.0780   -11.3830   -24.2690 hc         1 PUB       0.054200
     44 HBC1        36.5750   -11.4920   -24.0680 hc         1 PUB       0.022200
     45 HBC2        36.4440   -10.0750   -25.0960 hc         1 PUB       0.022200
     46 HND         40.7740    -6.9140   -22.0910 hn         1 PUB       0.357500
     47 H1D1        39.8730    -7.0960   -19.6590 h1         1 PUB       0.086700
     48 HMD1        38.9310    -3.6730   -18.1560 hc         1 PUB       0.044033
     49 HMD2        37.6720    -4.7360   -18.8010 hc         1 PUB       0.044033
     50 HMD3        38.9130    -5.3970   -17.7500 hc         1 PUB       0.044033
     51 HBD1        42.4420    -1.6350   -19.1110 hc         1 PUB       0.033367
     52 HBD2        42.0380    -3.1540   -18.2970 hc         1 PUB       0.033367
     53 HBD3        42.9700    -3.1760   -19.7980 hc         1 PUB       0.033367
     54 HNA         41.3710   -12.2880   -17.3670 hn         1 PUB       0.424500
     55 H4A1        40.2620    -9.9920   -17.2320 h1         1 PUB       0.067700
     56 HMA1        41.6450    -9.5950   -12.6790 hc         1 PUB       0.037033
     57 HMA2        42.0480   -11.3130   -12.5590 hc         1 PUB       0.037033
     58 HMA3        43.1710   -10.2080   -13.3340 hc         1 PUB       0.037033
     59 HBA1        38.9100    -6.9690   -15.0760 hc         1 PUB       0.033033
     60 HBA2        40.5370    -7.3660   -15.6440 hc         1 PUB       0.033033
     61 HBA3        39.1230    -8.0080   -16.4860 hc         1 PUB       0.033033
     62 HAA1        38.5200    -9.3480   -14.4540 hc         1 PUB       0.038700
     63 HAA2        39.8910    -8.6900   -13.5850 hc         1 PUB       0.038700
     64 HAD1        40.9780    -2.2330   -21.0240 hc         1 PUB       0.043700
     65 HAD2        40.0510    -2.2570   -19.5330 hc         1 PUB       0.043700
     66 HNB         38.2930   -10.2460   -19.1080 hn         1 PUB       0.377000
     67 HHB1        38.6880   -12.2770   -22.2290 ha         1 PUB       0.215000
     68 HAB1        39.1230   -15.4440   -19.9720 hc         1 PUB       0.037200
     69 HAB2        38.8060   -14.5340   -21.4420 hc         1 PUB       0.037200
     70 HBB1        41.1670   -15.2310   -21.3390 hc         1 PUB       0.032200
     71 HBB2        41.0250   -13.4630   -21.3170 hc         1 PUB       0.032200
     72 CMB         38.9990   -14.4480   -17.2950 c3         1 PUB      -0.017800
     73 CHA         38.7050   -11.3170   -16.5610 c3         1 PUB      -0.006100
     74 CMA         42.1090   -10.4300   -13.2020 c3         1 PUB      -0.024900
     75 HHA1        38.5370   -12.0260   -15.7510 hc         1 PUB       0.048200
     76 CBA         39.5290    -7.7600   -15.5030 c3         1 PUB      -0.088100
     77 HHA2        37.9870   -10.5010   -16.4550 hc         1 PUB       0.048200
     78 HMB1        38.5520   -15.3680   -17.6750 hc         1 PUB       0.041700
     79 HMB2        40.0610   -14.6460   -17.1410 hc         1 PUB       0.041700
     80 HMB3        38.5540   -14.2380   -16.3220 hc         1 PUB       0.041700
     81 CAB         39.3220   -14.4980   -20.4800 c3         1 PUB      -0.007100
     82 OA          42.9720   -12.4450   -15.2660 o          1 PUB      -0.564000
     83 CBB         40.8450   -14.3730   -20.7440 c3         1 PUB      -0.191400
@<TRIPOS>BOND
     1     1     6 1   
     2     1    14 1   
     3     1    37 1   
     4     1    38 1   
     5     2     3 1   
     6     2     6 2   
     7     3     4 1   
     8     3    33 2   
     9     4     5 2   
    10     4     8 1   
    11     5     6 1   
    12     5     7 1   
    13     7    39 1   
    14     7    40 1   
    15     7    41 1   
    16     8     9 1   
    17     8    42 1   
    18     8    43 1   
    19     9    10 1   
    20     9    44 1   
    21     9    45 1   
    22    10    11 1   
    23    10    12 1   
    24    13    14 1   
    25    13    17 1   
    26    13    46 1   
    27    14    15 1   
    28    14    47 1   
    29    15    16 2   
    30    15    18 1   
    31    16    17 1   
    32    16    27 1   
    33    17    20 2   
    34    18    48 1   
    35    18    49 1   
    36    18    50 1   
    37    19    27 1   
    38    19    51 1   
    39    19    52 1   
    40    19    53 1   
    41    21    22 1   
    42    21    25 1   
    43    21    54 1   
    44    22    23 1   
    45    22    82 2   
    46    23    24 2   
    47    23    74 1   
    48    24    25 1   
    49    24    26 1   
    50    25    55 1   
    51    25    73 1   
    52    26    62 1   
    53    26    63 1   
    54    26    76 1   
    55    27    64 1   
    56    27    65 1   
    57    28    29 1   
    58    28    32 1   
    59    28    66 1   
    60    29    30 2   
    61    29    73 1   
    62    30    31 1   
    63    30    72 1   
    64    31    32 2   
    65    31    81 1   
    66    32    33 1   
    67    33    67 1   
    68    34    35 1   
    69    34    36 1   
    70    34    83 1   
    71    56    74 1   
    72    57    74 1   
    73    58    74 1   
    74    59    76 1   
    75    60    76 1   
    76    61    76 1   
    77    68    81 1   
    78    69    81 1   
    79    70    83 1   
    80    71    83 1   
    81    72    78 1   
    82    72    79 1   
    83    72    80 1   
    84    73    75 1   
    85    73    77 1   
    86    81    83 1   
@<TRIPOS>SUBSTRUCTURE
     1 PUB         1 TEMP              0 ****  ****    0 ROOT
