@<TRIPOS>MOLECULE
PUB
   83    86     1     0     0
SMALL
No Charge or Current Charge


@<TRIPOS>ATOM
      1 CHC         38.2420    -6.6090   -21.1040 c3         1 PUB      -0.089700
      2 NC          38.3810    -9.0550   -20.9820 nc         1 PUB      -0.626300
      3 C1C         38.4990   -10.1130   -21.8550 cc         1 PUB      -0.026400
      4 C2C         38.5450    -9.6320   -23.2030 cc         1 PUB      -0.016200
      5 C3C         38.4520    -8.2690   -23.1400 cd         1 PUB      -0.298800
      6 C4C         38.3520    -7.9680   -21.7440 cd         1 PUB       0.389600
      7 CMC         38.4580    -7.2950   -24.2940 c3         1 PUB      -0.011900
      8 CAC         38.6810   -10.5040   -24.4300 c3         1 PUB      -0.022200
      9 CBC         37.3410   -11.1420   -24.8690 c3         1 PUB      -0.192400
     10 CGC         37.5590   -12.0110   -26.1180 c          1 PUB       0.706000
     11 O1C         37.4670   -11.4810   -27.2140 o          1 PUB      -0.745000
     12 O2C         37.8650   -13.1830   -25.9580 o          1 PUB      -0.745000
     13 ND          40.4210    -5.6900   -21.9350 ns         1 PUB      -0.494900
     14 C1D         39.6040    -5.9830   -20.7420 c5         1 PUB       0.132900
     15 C2D         39.4700    -4.5730   -20.1300 c2         1 PUB      -0.098400
     16 C3D         40.0890    -3.6900   -20.9350 ce         1 PUB      -0.186400
     17 C4D         40.6840    -4.3670   -22.0880 c          1 PUB       0.553200
     18 CMD         38.7300    -4.3100   -18.8320 c3         1 PUB      -0.044900
     19 CBD         41.2810    -1.7820   -19.7370 c3         1 PUB      -0.085100
     20 OD          41.3100    -3.8780   -23.0150 o          1 PUB      -0.580000
     21 NA          41.1920   -12.0270   -16.4250 ns         1 PUB      -0.487900
     22 C1A         41.9070   -12.3790   -15.3290 c          1 PUB       0.544200
     23 C2A         41.5180   -11.4500   -14.2650 ce         1 PUB      -0.175400
     24 C3A         40.5950   -10.5750   -14.7040 c2         1 PUB      -0.131400
     25 C4A         40.2550   -10.9110   -16.1700 c5         1 PUB       0.132900
     26 CAA         39.9610    -9.4190   -13.9500 c3         1 PUB      -0.024200
     27 CAD         40.1940    -2.1830   -20.7510 c3         1 PUB      -0.010200
     28 NB          38.4420   -11.1540   -18.9030 na         1 PUB      -0.084000
     29 C1B         38.5510   -11.8990   -17.7340 cc         1 PUB      -0.149300
     30 C2B         38.6370   -13.2210   -18.1410 cd         1 PUB      -0.125300
     31 C3B         38.6950   -13.2550   -19.5720 cd         1 PUB      -0.026300
     32 C4B         38.5380   -11.9250   -20.0350 cd         1 PUB      -0.205800
     33 CHB         38.5630   -11.4130   -21.4130 cf         1 PUB       0.074800
     34 CGB         41.3880   -14.6300   -19.4430 c          1 PUB       0.712000
     35 O1B         41.6290   -15.7540   -19.0300 o          1 PUB      -0.749500
     36 O2B         41.7640   -13.6090   -18.8820 o          1 PUB      -0.749500
     37 HHC1        37.6850    -5.9310   -21.7610 hc         1 PUB       0.050700
     38 HHC2        37.6340    -6.6930   -20.1950 hc         1 PUB       0.050700
     39 HMC1        38.1770    -6.2820   -23.9840 hc         1 PUB       0.028033
     40 HMC2        39.4530    -7.2380   -24.7510 hc         1 PUB       0.028033
     41 HMC3        37.7520    -7.6070   -25.0730 hc         1 PUB       0.028033
     42 HAC1        39.0800    -9.9100   -25.2610 hc         1 PUB       0.054200
     43 HAC2        39.4210   -11.2920   -24.2480 hc         1 PUB       0.054200
     44 HBC1        37.0060   -11.7580   -24.0260 hc         1 PUB       0.022200
     45 HBC2        36.6710   -10.3030   -25.0950 hc         1 PUB       0.022200
     46 HND         40.7440    -6.3510   -22.6300 hn         1 PUB       0.357500
     47 H1D1        40.1310    -6.6600   -20.0530 h1         1 PUB       0.086700
     48 HMD1        38.8280    -3.2690   -18.5050 hc         1 PUB       0.044033
     49 HMD2        37.6600    -4.5210   -18.9400 hc         1 PUB       0.044033
     50 HMD3        39.1170    -4.9460   -18.0270 hc         1 PUB       0.044033
     51 HBD1        41.3230    -0.6910   -19.6310 hc         1 PUB       0.033367
     52 HBD2        41.0750    -2.2150   -18.7510 hc         1 PUB       0.033367
     53 HBD3        42.2650    -2.1340   -20.0690 hc         1 PUB       0.033367
     54 HNA         41.3000   -12.5590   -17.2920 hn         1 PUB       0.424500
     55 H4A1        40.4770   -10.0610   -16.8290 h1         1 PUB       0.067700
     56 HMA1        42.4040   -10.4670   -12.5390 hc         1 PUB       0.037033
     57 HMA2        41.5210   -11.9540   -12.1550 hc         1 PUB       0.037033
     58 HMA3        43.1200   -12.0360   -12.9080 hc         1 PUB       0.037033
     59 HBA1        40.0050    -7.2420   -13.8660 hc         1 PUB       0.033033
     60 HBA2        41.5550    -7.9800   -14.3280 hc         1 PUB       0.033033
     61 HBA3        40.2200    -7.9040   -15.5010 hc         1 PUB       0.033033
     62 HAA1        38.8700    -9.4540   -14.0540 hc         1 PUB       0.038700
     63 HAA2        40.1640    -9.5010   -12.8760 hc         1 PUB       0.038700
     64 HAD1        40.4100    -1.6920   -21.7080 hc         1 PUB       0.043700
     65 HAD2        39.2310    -1.7760   -20.4180 hc         1 PUB       0.043700
     66 HNB         38.3700   -10.1400   -18.9440 hn         1 PUB       0.377000
     67 HHB1        38.6580   -12.1620   -22.1970 ha         1 PUB       0.215000
     68 HAB1        38.7320   -15.3830   -19.9380 hc         1 PUB       0.037200
     69 HAB2        38.4770   -14.4120   -21.3680 hc         1 PUB       0.037200
     70 HBB1        40.6920   -15.3960   -21.3630 hc         1 PUB       0.032200
     71 HBB2        40.7920   -13.5670   -21.2530 hc         1 PUB       0.032200
     72 CMB         38.7920   -14.4110   -17.2210 c3         1 PUB      -0.017800
     73 CHA         38.7710   -11.3100   -16.3700 c3         1 PUB      -0.006100
     74 CMA         42.1760   -11.4790   -12.8950 c3         1 PUB      -0.024900
     75 HHA1        38.4720   -12.0280   -15.5980 hc         1 PUB       0.048200
     76 CBA         40.4670    -8.0520   -14.4430 c3         1 PUB      -0.088100
     77 HHA2        38.1270   -10.4320   -16.2350 hc         1 PUB       0.048200
     78 HMB1        38.4450   -15.3380   -17.6880 hc         1 PUB       0.041700
     79 HMB2        39.8380   -14.5540   -16.9260 hc         1 PUB       0.041700
     80 HMB3        38.2060   -14.2800   -16.3040 hc         1 PUB       0.041700
     81 CAB         39.0360   -14.4510   -20.4260 c3         1 PUB      -0.007100
     82 OA          42.7190   -13.2880   -15.2760 o          1 PUB      -0.564000
     83 CBB         40.5550   -14.5060   -20.7370 c3         1 PUB      -0.191400
@<TRIPOS>BOND
     1     1     6 1   
     2     1    14 1   
     3     1    37 1   
     4     1    38 1   
     5     2     3 1   
     6     2     6 2   
     7     3     4 1   
     8     3    33 2   
     9     4     5 2   
    10     4     8 1   
    11     5     6 1   
    12     5     7 1   
    13     7    39 1   
    14     7    40 1   
    15     7    41 1   
    16     8     9 1   
    17     8    42 1   
    18     8    43 1   
    19     9    10 1   
    20     9    44 1   
    21     9    45 1   
    22    10    11 1   
    23    10    12 1   
    24    13    14 1   
    25    13    17 1   
    26    13    46 1   
    27    14    15 1   
    28    14    47 1   
    29    15    16 2   
    30    15    18 1   
    31    16    17 1   
    32    16    27 1   
    33    17    20 2   
    34    18    48 1   
    35    18    49 1   
    36    18    50 1   
    37    19    27 1   
    38    19    51 1   
    39    19    52 1   
    40    19    53 1   
    41    21    22 1   
    42    21    25 1   
    43    21    54 1   
    44    22    23 1   
    45    22    82 2   
    46    23    24 2   
    47    23    74 1   
    48    24    25 1   
    49    24    26 1   
    50    25    55 1   
    51    25    73 1   
    52    26    62 1   
    53    26    63 1   
    54    26    76 1   
    55    27    64 1   
    56    27    65 1   
    57    28    29 1   
    58    28    32 1   
    59    28    66 1   
    60    29    30 2   
    61    29    73 1   
    62    30    31 1   
    63    30    72 1   
    64    31    32 2   
    65    31    81 1   
    66    32    33 1   
    67    33    67 1   
    68    34    35 1   
    69    34    36 1   
    70    34    83 1   
    71    56    74 1   
    72    57    74 1   
    73    58    74 1   
    74    59    76 1   
    75    60    76 1   
    76    61    76 1   
    77    68    81 1   
    78    69    81 1   
    79    70    83 1   
    80    71    83 1   
    81    72    78 1   
    82    72    79 1   
    83    72    80 1   
    84    73    75 1   
    85    73    77 1   
    86    81    83 1   
@<TRIPOS>SUBSTRUCTURE
     1 PUB         1 TEMP              0 ****  ****    0 ROOT
