@<TRIPOS>MOLECULE
PUD
   23    22     1     0     0
SMALL
No Charge or Current Charge


@<TRIPOS>ATOM
      1 C4           0.9250    -0.5270     0.3110 c3         1 PUD       0.101300
      2 C2          -1.5450     0.2400     0.4840 c          1 PUD       0.546100
      3 C6           3.3890    -1.3450     0.0580 c3         1 PUD      -0.125100
      4 C5           2.3160    -0.3250    -0.3840 c3         1 PUD       0.147300
      5 C1          -2.4390    -0.7480    -0.3260 c3         1 PUD       0.070600
      6 O1          -3.7820    -0.2540    -0.5580 oh         1 PUD      -0.624000
      7 O2          -1.9970     0.9200     1.4040 o          1 PUD      -0.485100
      8 C3          -0.1300     0.5500    -0.1030 c3         1 PUD       0.046300
      9 O3           0.3340     1.8820     0.2770 oh         1 PUD      -0.695000
     10 O4           0.4160    -1.8350    -0.0010 oh         1 PUD      -0.645000
     11 O5           2.8080     0.9870    -0.0990 oh         1 PUD      -0.702000
     12 H1           1.0760    -0.4450     1.3980 h1         1 PUD       0.082700
     13 H2           3.1060    -2.3640    -0.2290 hc         1 PUD       0.047367
     14 H3           4.3500    -1.1220    -0.4210 hc         1 PUD       0.047367
     15 H4           3.5330    -1.3170     1.1450 hc         1 PUD       0.047367
     16 H5           2.1690    -0.4330    -1.4690 h1         1 PUD       0.061700
     17 H6          -1.9450    -0.9510    -1.2850 h1         1 PUD       0.036200
     18 H7          -2.4670    -1.6940     0.2300 h1         1 PUD       0.036200
     19 H8          -4.2740    -0.9530    -1.0460 ho         1 PUD       0.447000
     20 H9          -0.2390     0.5010    -1.1950 h1         1 PUD       0.088700
     21 H10         -0.3840     2.2990     0.8190 ho         1 PUD       0.519000
     22 H11          1.0390    -2.4970     0.3760 ho         1 PUD       0.441000
     23 H12          1.9810     1.5330     0.0350 ho         1 PUD       0.510000
@<TRIPOS>BOND
     1     1     4 1   
     2     1     8 1   
     3     1    10 1   
     4     1    12 1   
     5     2     5 1   
     6     2     7 2   
     7     2     8 1   
     8     3     4 1   
     9     3    13 1   
    10     3    14 1   
    11     3    15 1   
    12     4    11 1   
    13     4    16 1   
    14     5     6 1   
    15     5    17 1   
    16     5    18 1   
    17     6    19 1   
    18     8     9 1   
    19     8    20 1   
    20     9    21 1   
    21    10    22 1   
    22    11    23 1   
@<TRIPOS>SUBSTRUCTURE
     1 PUD         1 TEMP              0 ****  ****    0 ROOT
