@<TRIPOS>MOLECULE
PUD
   23    22     1     0     0
SMALL
bcc


@<TRIPOS>ATOM
      1 C4           0.8830    -0.4340     0.3900 c3         1 PUD       0.078100
      2 C2          -1.5240     0.1910     0.2470 c          1 PUD       0.546100
      3 C6           3.2840    -1.1930     0.5300 c3         1 PUD      -0.125100
      4 C5           2.2440    -0.4870    -0.3270 c3         1 PUD       0.124100
      5 C1          -2.4060    -0.6130    -0.6600 c3         1 PUD       0.047400
      6 O1          -3.6130    -0.9020    -0.0260 oh         1 PUD      -0.561800
      7 O2          -1.8860     0.5980     1.3250 o          1 PUD      -0.485100
      8 C3          -0.1260     0.5310    -0.2700 c3         1 PUD       0.023100
      9 O3           0.1670     1.8740     0.0110 oh         1 PUD      -0.572800
     10 O4           0.3440    -1.7320     0.5100 oh         1 PUD      -0.582800
     11 O5           2.6920     0.7770    -0.7570 oh         1 PUD      -0.579800
     12 H1           1.0290    -0.0820     1.4190 h1         1 PUD       0.082700
     13 H2           2.9440    -2.1820     0.8360 hc         1 PUD       0.047367
     14 H3           4.2180    -1.3160    -0.0210 hc         1 PUD       0.047367
     15 H4           3.4960    -0.6200     1.4360 hc         1 PUD       0.047367
     16 H5           2.0970    -1.0610    -1.2510 h1         1 PUD       0.061700
     17 H6          -2.5300    -0.0190    -1.5790 h1         1 PUD       0.036200
     18 H7          -1.8520    -1.5100    -0.9680 h1         1 PUD       0.036200
     19 H8          -4.1750    -1.3660    -0.6530 ho         1 PUD       0.408000
     20 H9          -0.1000     0.4130    -1.3590 h1         1 PUD       0.088700
     21 H10         -0.0640     2.0430     0.9330 ho         1 PUD       0.420000
     22 H11          0.3990    -2.1800    -0.3420 ho         1 PUD       0.402000
     23 H12          2.7170     1.3730    -0.0020 ho         1 PUD       0.411000
@<TRIPOS>BOND
     1     1     4 1   
     2     1     8 1   
     3     1    10 1   
     4     1    12 1   
     5     2     5 1   
     6     2     7 2   
     7     2     8 1   
     8     3     4 1   
     9     3    13 1   
    10     3    14 1   
    11     3    15 1   
    12     4    11 1   
    13     4    16 1   
    14     5     6 1   
    15     5    17 1   
    16     5    18 1   
    17     6    19 1   
    18     8     9 1   
    19     8    20 1   
    20     9    21 1   
    21    10    22 1   
    22    11    23 1   
@<TRIPOS>SUBSTRUCTURE
     1 PUD         1 TEMP              0 ****  ****    0 ROOT
