@<TRIPOS>MOLECULE
PUE
   26    27     1     0     0
SMALL
bcc


@<TRIPOS>ATOM
      1 C2           5.0920    -5.9400     6.4110 c5         1 PUE      -0.068400
      2 C3           3.6380    -6.3800     6.5230 c5         1 PUE       0.216800
      3 C4           3.8130    -4.5750     4.9300 c5         1 PUE       0.238800
      4 C5           1.6990    -5.8580     5.0740 ca         1 PUE       0.233600
      5 C6           1.1360    -5.1650     3.9830 ca         1 PUE      -0.232500
      6 C10          0.8850    -6.8000     5.7340 ca         1 PUE      -0.232500
      7 N            2.9750    -5.6240     5.4770 nh         1 PUE      -0.689000
      8 C            6.2600    -3.8800     5.3120 c          1 PUE       0.938600
      9 O            6.0830    -2.8910     4.5710 o          1 PUE      -0.834300
     10 C1           4.9880    -4.5060     5.9050 c5         1 PUE      -0.204700
     11 C7          -0.1680    -5.4080     3.5840 ca         1 PUE      -0.083500
     12 C8          -0.9630    -6.3390     4.2420 ca         1 PUE      -0.226000
     13 C9          -0.4170    -7.0280     5.3180 ca         1 PUE      -0.083500
     14 O1           7.3520    -4.3840     5.6400 o          1 PUE      -0.834300
     15 H1           5.6180    -6.5630     5.6830 hc         1 PUE       0.051200
     16 H2           5.6200    -6.0260     7.3600 hc         1 PUE       0.051200
     17 H3           3.2240    -6.1440     7.5120 h1         1 PUE       0.021200
     18 H4           3.5190    -7.4580     6.3750 h1         1 PUE       0.021200
     19 H5           4.1500    -4.8190     3.9140 h1         1 PUE       0.046200
     20 H6           3.2730    -3.6270     4.8700 h1         1 PUE       0.046200
     21 H7           1.7250    -4.4400     3.4380 ha         1 PUE       0.129000
     22 H8           1.2670    -7.3500     6.5830 ha         1 PUE       0.129000
     23 H9           4.6790    -3.8730     6.7480 hc         1 PUE       0.035700
     24 H10         -0.5660    -4.8580     2.7400 ha         1 PUE       0.108000
     25 H11         -1.9810    -6.5220     3.9250 ha         1 PUE       0.112000
     26 H12         -1.0140    -7.7580     5.8510 ha         1 PUE       0.108000
@<TRIPOS>BOND
     1     1     2 1   
     2     1    10 1   
     3     1    15 1   
     4     1    16 1   
     5     2     7 1   
     6     2    17 1   
     7     2    18 1   
     8     3     7 1   
     9     3    10 1   
    10     3    19 1   
    11     3    20 1   
    12     4     5 ar  
    13     4     6 ar  
    14     4     7 1   
    15     5    11 ar  
    16     5    21 1   
    17     6    13 ar  
    18     6    22 1   
    19     8     9 1   
    20     8    10 1   
    21     8    14 1   
    22    10    23 1   
    23    11    12 ar  
    24    11    24 1   
    25    12    13 ar  
    26    12    25 1   
    27    13    26 1   
@<TRIPOS>SUBSTRUCTURE
     1 PUE         1 TEMP              0 ****  ****    0 ROOT
