@<TRIPOS>MOLECULE
PUE
   26    27     1     0     0
SMALL
No Charge or Current Charge


@<TRIPOS>ATOM
      1 C2           5.1310    -5.8910     6.4280 c5         1 PUE      -0.068400
      2 C3           3.6550    -6.3300     6.6080 c5         1 PUE       0.216800
      3 C4           3.8550    -4.5620     4.8960 c5         1 PUE       0.238800
      4 C5           1.6580    -5.8780     5.0620 ca         1 PUE       0.372000
      5 C6           1.1840    -5.3660     3.8360 ca         1 PUE      -0.214500
      6 C10          0.7910    -6.6750     5.8400 ca         1 PUE      -0.214500
      7 N            2.9760    -5.5980     5.5050 nh         1 PUE      -0.827400
      8 C            6.2200    -3.8050     5.3720 c          1 PUE       0.728000
      9 O            6.6570    -2.7690     5.8510 o          1 PUE      -0.729000
     10 C1           4.9400    -4.4130     5.9880 c5         1 PUE      -0.204700
     11 C7          -0.1220    -5.6430     3.3970 ca         1 PUE      -0.065500
     12 C8          -0.9710    -6.4370     4.1820 ca         1 PUE      -0.208000
     13 C9          -0.5160    -6.9530     5.4040 ca         1 PUE      -0.065500
     14 O1           6.7750    -4.3640     4.4370 o          1 PUE      -0.729000
     15 H1           5.6250    -6.4930     5.6550 hc         1 PUE       0.051200
     16 H2           5.7140    -5.9930     7.3500 hc         1 PUE       0.051200
     17 H3           3.2630    -6.0150     7.5850 h1         1 PUE       0.021200
     18 H4           3.5470    -7.4200     6.5190 h1         1 PUE       0.021200
     19 H5           4.2690    -4.9150     3.9410 h1         1 PUE       0.046200
     20 H6           3.3320    -3.6100     4.7220 h1         1 PUE       0.046200
     21 H7           1.8250    -4.7560     3.2090 ha         1 PUE       0.111000
     22 H8           1.1200    -7.0790     6.7910 ha         1 PUE       0.111000
     23 H9           4.5880    -3.7880     6.8170 hc         1 PUE       0.035700
     24 H10         -0.4740    -5.2430     2.4480 ha         1 PUE       0.090000
     25 H11         -1.9820    -6.6520     3.8440 ha         1 PUE       0.094000
     26 H12         -1.1740    -7.5680     6.0150 ha         1 PUE       0.090000
@<TRIPOS>BOND
     1     1     2 1   
     2     1    10 1   
     3     1    15 1   
     4     1    16 1   
     5     2     7 1   
     6     2    17 1   
     7     2    18 1   
     8     3     7 1   
     9     3    10 1   
    10     3    19 1   
    11     3    20 1   
    12     4     5 ar  
    13     4     6 ar  
    14     4     7 1   
    15     5    11 ar  
    16     5    21 1   
    17     6    13 ar  
    18     6    22 1   
    19     8     9 1   
    20     8    10 1   
    21     8    14 1   
    22    10    23 1   
    23    11    12 ar  
    24    11    24 1   
    25    12    13 ar  
    26    12    25 1   
    27    13    26 1   
@<TRIPOS>SUBSTRUCTURE
     1 PUE         1 TEMP              0 ****  ****    0 ROOT
