@<TRIPOS>MOLECULE
PUF
   23    23     1     0     0
SMALL
abcg2


@<TRIPOS>ATOM
      1 C1          -1.9670    -0.0900    -0.6300 c3         1 PUF       0.132600
      2 O1          -2.9590    -0.5760     0.2470 oh         1 PUF      -0.716000
      3 C2          -0.6830     0.1300     0.1640 c5         1 PUF       0.398000
      4 O2          -0.9320     0.9130     1.2820 oh         1 PUF      -0.686000
      5 C3           0.4110     0.7780    -0.6920 c5         1 PUF       0.159300
      6 O3           0.2550     2.1600    -0.7580 oh         1 PUF      -0.668000
      7 C4           1.7000     0.2680    -0.0460 c5         1 PUF       0.107300
      8 O4           2.0270     1.0950     1.0400 oh         1 PUF      -0.672000
      9 C5           1.2830    -1.1500     0.3630 c5         1 PUF       0.138300
     10 O5          -0.1410    -1.1200     0.5160 os         1 PUF      -0.466000
     11 C6           1.6660    -2.2040    -0.6580 c3         1 PUF      -0.106100
     12 H1          -1.7690    -0.7910    -1.4490 h1         1 PUF       0.040200
     13 H2          -2.2610     0.8660    -1.0770 h1         1 PUF       0.040200
     14 H3          -3.8200    -0.3000    -0.0780 ho         1 PUF       0.509000
     15 H4          -1.8010     0.6640     1.6260 ho         1 PUF       0.522000
     16 H5           0.3490     0.3230    -1.6910 h1         1 PUF       0.034700
     17 H6           0.7930     2.4900    -1.4840 ho         1 PUF       0.501000
     18 H7           2.5210     0.2330    -0.7730 h1         1 PUF       0.038700
     19 H8           2.8690     0.7960     1.3950 ho         1 PUF       0.497000
     20 H9           1.7330    -1.4100     1.3280 h1         1 PUF       0.066700
     21 H10          2.7510    -2.3010    -0.7100 hc         1 PUF       0.042367
     22 H11          1.2600    -3.1780    -0.3840 hc         1 PUF       0.042367
     23 H12          1.3020    -1.9560    -1.6570 hc         1 PUF       0.042367
@<TRIPOS>BOND
     1     1     2 1   
     2     1     3 1   
     3     1    12 1   
     4     1    13 1   
     5     2    14 1   
     6     3     4 1   
     7     3     5 1   
     8     3    10 1   
     9     4    15 1   
    10     5     6 1   
    11     5     7 1   
    12     5    16 1   
    13     6    17 1   
    14     7     8 1   
    15     7     9 1   
    16     7    18 1   
    17     8    19 1   
    18     9    10 1   
    19     9    11 1   
    20     9    20 1   
    21    11    21 1   
    22    11    22 1   
    23    11    23 1   
@<TRIPOS>SUBSTRUCTURE
     1 PUF         1 TEMP              0 ****  ****    0 ROOT
