@<TRIPOS>MOLECULE
PUF
   23    23     1     0     0
SMALL
No Charge or Current Charge


@<TRIPOS>ATOM
      1 C1          -2.1940     0.1220    -0.5190 c3         1 PUF       0.132600
      2 O1          -3.1030    -0.3330     0.5180 oh         1 PUF      -0.716000
      3 C2          -0.7200     0.1240    -0.0030 c5         1 PUF       0.398000
      4 O2          -0.7760     0.6320     1.3220 oh         1 PUF      -0.686000
      5 C3           0.3200     0.8280    -0.9510 c5         1 PUF       0.159300
      6 O3           0.3030     2.2630    -0.9390 oh         1 PUF      -0.668000
      7 C4           1.6780     0.2730    -0.4090 c5         1 PUF       0.107300
      8 O4           2.2560     1.1680     0.5640 oh         1 PUF      -0.672000
      9 C5           1.2390    -1.1080     0.2200 c5         1 PUF       0.138300
     10 O5          -0.1960    -1.2070     0.0360 os         1 PUF      -0.466000
     11 C6           1.9050    -2.3470    -0.4110 c3         1 PUF      -0.106100
     12 H1          -2.2560    -0.5280    -1.4020 h1         1 PUF       0.040200
     13 H2          -2.4590     1.1390    -0.8400 h1         1 PUF       0.040200
     14 H3          -3.9850    -0.4680     0.0940 ho         1 PUF       0.509000
     15 H4          -1.6890     0.3450     1.5730 ho         1 PUF       0.522000
     16 H5           0.1600     0.4720    -1.9780 h1         1 PUF       0.034700
     17 H6           0.9330     2.4710    -0.2050 ho         1 PUF       0.501000
     18 H7           2.3820     0.1220    -1.2400 h1         1 PUF       0.038700
     19 H8           3.1130     0.7770     0.8530 ho         1 PUF       0.497000
     20 H9           1.4440    -1.1170     1.2990 h1         1 PUF       0.066700
     21 H10          2.9930    -2.3160    -0.2760 hc         1 PUF       0.042367
     22 H11          1.5380    -3.2700     0.0540 hc         1 PUF       0.042367
     23 H12          1.7000    -2.4040    -1.4860 hc         1 PUF       0.042367
@<TRIPOS>BOND
     1     1     2 1   
     2     1     3 1   
     3     1    12 1   
     4     1    13 1   
     5     2    14 1   
     6     3     4 1   
     7     3     5 1   
     8     3    10 1   
     9     4    15 1   
    10     5     6 1   
    11     5     7 1   
    12     5    16 1   
    13     6    17 1   
    14     7     8 1   
    15     7     9 1   
    16     7    18 1   
    17     8    19 1   
    18     9    10 1   
    19     9    11 1   
    20     9    20 1   
    21    11    21 1   
    22    11    22 1   
    23    11    23 1   
@<TRIPOS>SUBSTRUCTURE
     1 PUF         1 TEMP              0 ****  ****    0 ROOT
