@<TRIPOS>MOLECULE
PUG
   35    36     1     0     0
SMALL
abcg2


@<TRIPOS>ATOM
      1 O1          -3.2050     3.1980     0.4030 o          1 PUG      -0.546000
      2 C2          -3.0860     2.0050     0.2220 c          1 PUG       0.631000
      3 N3          -4.0720     1.2320    -0.3410 ns         1 PUG      -0.472500
      4 C4          -4.0780    -0.1430    -0.5960 c          1 PUG       0.632200
      5 O2          -5.0450    -0.6890    -1.0970 o          1 PUG      -0.523000
      6 N1          -1.9440     1.3190     0.5650 ns         1 PUG      -0.505600
      7 C8          -1.8500    -0.0130     0.3470 cc         1 PUG       0.187200
      8 C9          -2.8550    -0.7440    -0.2030 cd         1 PUG      -0.234600
      9 N5          -2.4110    -2.0580    -0.2440 ns         1 PUG      -0.460600
     10 N7          -0.8210    -0.8390     0.6500 n          1 PUG      -0.299000
     11 C6          -1.1570    -2.1440     0.2640 c          1 PUG       0.586000
     12 O4          -0.4380    -3.1170     0.3830 o          1 PUG      -0.561000
     13 C10          0.4810    -0.4840     1.1740 c3         1 PUG       0.081000
     14 C11          1.4680    -0.1830     0.0470 c3         1 PUG       0.124300
     15 O19          1.0060     0.8700    -0.7650 oh         1 PUG      -0.697000
     16 C12          2.8680     0.0620     0.6170 c3         1 PUG       0.098300
     17 O21          2.8700     1.1720     1.4920 oh         1 PUG      -0.724000
     18 C13          3.9390     0.2050    -0.4780 c3         1 PUG       0.143300
     19 O23          3.8410    -0.8220    -1.4340 oh         1 PUG      -0.684000
     20 C14          5.3290     0.2740     0.1360 c3         1 PUG       0.127600
     21 O26          6.2580     0.5570    -0.8820 oh         1 PUG      -0.705000
     22 H3          -4.9110     1.7340    -0.6030 hn         1 PUG       0.349500
     23 H1          -1.1950     1.8450     0.9910 hn         1 PUG       0.466000
     24 H5          -2.9230    -2.8440    -0.6100 hn         1 PUG       0.487000
     25 H101         0.8350    -1.3210     1.7740 h1         1 PUG       0.075700
     26 H102         0.3690     0.3620     1.8550 h1         1 PUG       0.075700
     27 H11          1.5130    -1.0650    -0.5970 h1         1 PUG       0.113700
     28 H19          1.0940     1.7030    -0.2890 ho         1 PUG       0.491000
     29 H12          3.1180    -0.8110     1.2330 h1         1 PUG       0.078700
     30 H21          3.0330     1.9810     0.9950 ho         1 PUG       0.508000
     31 H13          3.7510     1.1370    -1.0260 h1         1 PUG       0.091700
     32 H23          4.1150    -1.6530    -1.0290 ho         1 PUG       0.502000
     33 H141         5.5450    -0.6870     0.6290 h1         1 PUG       0.026200
     34 H142         5.3460     1.0390     0.9200 h1         1 PUG       0.026200
     35 H26          7.1330     0.5870    -0.4850 ho         1 PUG       0.508000
@<TRIPOS>BOND
     1     1     2 2   
     2     2     3 1   
     3     2     6 1   
     4     3     4 1   
     5     3    22 1   
     6     4     5 2   
     7     4     8 1   
     8     6     7 1   
     9     6    23 1   
    10     7     8 2   
    11     7    10 1   
    12     8     9 1   
    13     9    11 1   
    14     9    24 1   
    15    10    11 1   
    16    10    13 1   
    17    11    12 2   
    18    13    14 1   
    19    13    25 1   
    20    13    26 1   
    21    14    15 1   
    22    14    16 1   
    23    14    27 1   
    24    15    28 1   
    25    16    17 1   
    26    16    18 1   
    27    16    29 1   
    28    17    30 1   
    29    18    19 1   
    30    18    20 1   
    31    18    31 1   
    32    19    32 1   
    33    20    21 1   
    34    20    33 1   
    35    20    34 1   
    36    21    35 1   
@<TRIPOS>SUBSTRUCTURE
     1 PUG         1 TEMP              0 ****  ****    0 ROOT
