@<TRIPOS>MOLECULE
PUG
   35    36     1     0     0
SMALL
No Charge or Current Charge


@<TRIPOS>ATOM
      1 O1          -2.3380     2.8480    -1.4960 o          1 PUG      -0.546000
      2 C2          -2.5480     1.7420    -1.0380 c          1 PUG       0.631000
      3 N3          -3.7660     1.1230    -1.1300 ns         1 PUG      -0.472500
      4 C4          -4.1320    -0.1010    -0.6390 c          1 PUG       0.632200
      5 O2          -5.2580    -0.5560    -0.7590 o          1 PUG      -0.523000
      6 N1          -1.5870     1.0230    -0.3870 ns         1 PUG      -0.505600
      7 C8          -1.7800    -0.2190     0.1410 cc         1 PUG       0.187200
      8 C9          -3.0090    -0.7810     0.0450 cd         1 PUG      -0.234600
      9 N5          -2.9370    -1.9970     0.7070 ns         1 PUG      -0.460600
     10 N7          -0.9540    -1.0910     0.8360 n          1 PUG      -0.299000
     11 C6          -1.6940    -2.2180     1.2280 c          1 PUG       0.586000
     12 O4          -1.3240    -3.1810     1.8780 o          1 PUG      -0.561000
     13 C10          0.4650    -0.8960     1.2340 c3         1 PUG       0.081000
     14 C11          1.3170     0.0740     0.3630 c3         1 PUG       0.124300
     15 O19          0.9580     1.4420     0.6310 oh         1 PUG      -0.697000
     16 C12          2.8400    -0.0500     0.6660 c3         1 PUG       0.098300
     17 O21          3.0850     0.5710     1.9530 oh         1 PUG      -0.724000
     18 C13          3.7350     0.6060    -0.4360 c3         1 PUG       0.143300
     19 O23          3.5290    -0.0440    -1.7000 oh         1 PUG      -0.684000
     20 C14          5.2550     0.5250    -0.1340 c3         1 PUG       0.127600
     21 O26          6.0000     0.9250    -1.3020 oh         1 PUG      -0.705000
     22 H3          -4.4870     1.6400    -1.6060 hn         1 PUG       0.349500
     23 H1          -0.6850     1.4810    -0.2560 hn         1 PUG       0.466000
     24 H5          -3.6860    -2.6730     0.8460 hn         1 PUG       0.487000
     25 H101         0.9490    -1.8810     1.2130 h1         1 PUG       0.075700
     26 H102         0.4870    -0.5540     2.2770 h1         1 PUG       0.075700
     27 H11          1.1450    -0.1870    -0.6920 h1         1 PUG       0.113700
     28 H19          1.6010     1.6920     1.3430 ho         1 PUG       0.491000
     29 H12          3.0930    -1.1200     0.7030 h1         1 PUG       0.078700
     30 H21          3.8320     0.0910     2.3860 ho         1 PUG       0.508000
     31 H13          3.4660     1.6700    -0.5120 h1         1 PUG       0.091700
     32 H23          4.3850     0.1190    -2.1710 ho         1 PUG       0.502000
     33 H141         5.5190    -0.5030     0.1520 h1         1 PUG       0.026200
     34 H142         5.4920     1.1820     0.7140 h1         1 PUG       0.026200
     35 H26          6.9520     0.9610    -1.0420 ho         1 PUG       0.508000
@<TRIPOS>BOND
     1     1     2 2   
     2     2     3 1   
     3     2     6 1   
     4     3     4 1   
     5     3    22 1   
     6     4     5 2   
     7     4     8 1   
     8     6     7 1   
     9     6    23 1   
    10     7     8 2   
    11     7    10 1   
    12     8     9 1   
    13     9    11 1   
    14     9    24 1   
    15    10    11 1   
    16    10    13 1   
    17    11    12 2   
    18    13    14 1   
    19    13    25 1   
    20    13    26 1   
    21    14    15 1   
    22    14    16 1   
    23    14    27 1   
    24    15    28 1   
    25    16    17 1   
    26    16    18 1   
    27    16    29 1   
    28    17    30 1   
    29    18    19 1   
    30    18    20 1   
    31    18    31 1   
    32    19    32 1   
    33    20    21 1   
    34    20    33 1   
    35    20    34 1   
    36    21    35 1   
@<TRIPOS>SUBSTRUCTURE
     1 PUG         1 TEMP              0 ****  ****    0 ROOT
