@<TRIPOS>MOLECULE
PUI
   21    22     1     0     0
SMALL
abcg2


@<TRIPOS>ATOM
      1 C1         -26.9570   -42.0030   -10.3580 c3         1 PUI      -0.047800
      2 C2         -28.4050   -42.3480   -10.2010 ca         1 PUI       0.025700
      3 C3         -29.3280   -41.4220    -9.8160 ca         1 PUI      -0.213000
      4 C4         -30.7040   -41.7830    -9.6670 ca         1 PUI       0.618900
      5 C7         -30.2530   -43.9500   -10.2740 ca         1 PUI       0.281000
      6 C8         -30.6920   -45.2680   -10.5190 ca         1 PUI      -0.068000
      7 C12        -28.8680   -43.6810   -10.4530 ca         1 PUI       0.182000
      8 N5         -31.6060   -40.8190    -9.3250 nv         1 PUI      -1.071900
      9 N6         -31.1510   -43.0070    -9.8810 nb         1 PUI      -0.756000
     10 C9         -29.7850   -46.2190   -10.9160 ca         1 PUI      -0.147000
     11 C10        -28.4350   -45.8520   -11.0680 ca         1 PUI       0.322900
     12 N11        -27.9860   -44.6310   -10.8470 nb         1 PUI      -0.646000
     13 H1         -26.6200   -42.2030   -11.3770 hc         1 PUI       0.053367
     14 H2         -26.7830   -40.9530   -10.1280 hc         1 PUI       0.053367
     15 H3         -26.3410   -42.6180    -9.6990 hc         1 PUI       0.053367
     16 H4         -29.0320   -40.3990    -9.6160 ha         1 PUI       0.120000
     17 H5         -31.7420   -45.5010   -10.3890 ha         1 PUI       0.133000
     18 H6         -32.5200   -41.1240    -9.0300 hn         1 PUI       0.481500
     19 H7         -31.2680   -39.9620    -8.9180 hn         1 PUI       0.481500
     20 H8         -30.0900   -47.2380   -11.1120 ha         1 PUI       0.123000
     21 H9         -27.7060   -46.5920   -11.3820 h4         1 PUI       0.019100
@<TRIPOS>BOND
     1     1     2 1   
     2     1    13 1   
     3     1    14 1   
     4     1    15 1   
     5     2     3 ar  
     6     2     7 ar  
     7     3     4 ar  
     8     3    16 1   
     9     4     8 1   
    10     4     9 ar  
    11     5     6 ar  
    12     5     7 ar  
    13     5     9 ar  
    14     6    10 ar  
    15     6    17 1   
    16     7    12 ar  
    17     8    18 1   
    18     8    19 1   
    19    10    11 ar  
    20    10    20 1   
    21    11    12 ar  
    22    11    21 1   
@<TRIPOS>SUBSTRUCTURE
     1 PUI         1 TEMP              0 ****  ****    0 ROOT
