@<TRIPOS>MOLECULE
PUI
   21    22     1     0     0
SMALL
No Charge or Current Charge


@<TRIPOS>ATOM
      1 C1         -26.9140   -41.9790   -10.3660 c3         1 PUI      -0.047800
      2 C2         -28.3870   -42.3490   -10.2160 ca         1 PUI       0.025700
      3 C3         -29.3180   -41.3680    -9.8330 ca         1 PUI      -0.213000
      4 C4         -30.6570   -41.7310    -9.7060 ca         1 PUI       0.618900
      5 C7         -30.2580   -43.9090   -10.2850 ca         1 PUI       0.281000
      6 C8         -30.7270   -45.2160   -10.5180 ca         1 PUI      -0.068000
      7 C12        -28.8510   -43.6690   -10.4550 ca         1 PUI       0.182000
      8 N5         -31.6250   -40.8910    -9.3420 nv         1 PUI      -1.071900
      9 N6         -31.1390   -42.9450    -9.9130 nb         1 PUI      -0.756000
     10 C9         -29.8220   -46.2190   -10.9030 ca         1 PUI      -0.147000
     11 C10        -28.4650   -45.8970   -11.0470 ca         1 PUI       0.322900
     12 N11        -27.9830   -44.6520   -10.8290 nb         1 PUI      -0.646000
     13 H1         -26.5640   -42.1640   -11.3880 hc         1 PUI       0.053367
     14 H2         -26.7350   -40.9210   -10.1430 hc         1 PUI       0.053367
     15 H3         -26.2890   -42.5690    -9.6850 hc         1 PUI       0.053367
     16 H4         -29.0090   -40.3450    -9.6400 ha         1 PUI       0.120000
     17 H5         -31.7830   -45.4450   -10.4010 ha         1 PUI       0.133000
     18 H6         -32.4860   -41.3460    -9.0630 hn         1 PUI       0.481500
     19 H7         -31.3580   -40.0690    -8.8110 hn         1 PUI       0.481500
     20 H8         -30.1620   -47.2340   -11.0890 ha         1 PUI       0.123000
     21 H9         -27.7410   -46.6550   -11.3440 h4         1 PUI       0.019100
@<TRIPOS>BOND
     1     1     2 1   
     2     1    13 1   
     3     1    14 1   
     4     1    15 1   
     5     2     3 ar  
     6     2     7 ar  
     7     3     4 ar  
     8     3    16 1   
     9     4     8 1   
    10     4     9 ar  
    11     5     6 ar  
    12     5     7 ar  
    13     5     9 ar  
    14     6    10 ar  
    15     6    17 1   
    16     7    12 ar  
    17     8    18 1   
    18     8    19 1   
    19    10    11 ar  
    20    10    20 1   
    21    11    12 ar  
    22    11    21 1   
@<TRIPOS>SUBSTRUCTURE
     1 PUI         1 TEMP              0 ****  ****    0 ROOT
