@<TRIPOS>MOLECULE
PUJ
   97   103     1     0     0
SMALL
abcg2


@<TRIPOS>ATOM
      1 C4          23.7810    29.6550    52.6130 ca         1 PUJ       0.110500
      2 C14         22.4580    26.7020    54.6480 ca         1 PUJ      -0.097300
      3 C5          23.2360    30.7690    51.9870 ca         1 PUJ      -0.139500
      4 C6          21.8690    31.0590    52.0600 ca         1 PUJ       0.317500
      5 C11         21.5930    29.0760    53.4060 ca         1 PUJ      -0.057500
      6 C7          20.1290    32.8530    51.8550 cy         1 PUJ       0.165300
      7 C8          20.7370    34.1390    51.2890 cy         1 PUJ       0.162800
      8 C9          22.0640    33.3900    51.1470 cy         1 PUJ       0.165300
      9 C10         21.0520    30.1840    52.7810 ca         1 PUJ      -0.166500
     10 C12         22.9540    28.7820    53.3330 ca         1 PUJ      -0.093300
     11 C13         23.5300    27.6190    54.1260 c5         1 PUJ       0.340900
     12 N1          21.3410    32.1560    51.4380 nn         1 PUJ      -0.793900
     13 N2          19.5140    23.0200    54.4850 ns         1 PUJ      -0.502900
     14 N3          27.9470    24.6450    52.0690 nn         1 PUJ      -0.793900
     15 SI1         25.6200    29.3240    52.4900 s6         1 PUJ      -0.290000
     16 C15         21.5830    25.8870    53.9590 ca         1 PUJ      -0.041000
     17 C16         20.7150    25.0890    54.6950 ca         1 PUJ      -0.135600
     18 C17         19.7760    24.2100    53.9250 c          1 PUJ       0.611700
     19 O1          19.3170    24.5850    52.8570 o          1 PUJ      -0.587100
     20 C18         18.6600    22.0170    53.8920 c3         1 PUJ       0.058000
     21 C19         17.6530    21.5060    54.9200 c3         1 PUJ       0.142600
     22 O2          16.8440    20.4860    54.3950 os         1 PUJ      -0.433000
     23 C20         17.4310    19.2050    54.4170 c3         1 PUJ       0.121600
     24 C21         16.4940    18.2250    53.7410 c3         1 PUJ       0.162600
     25 O3          16.2700    18.5150    52.3850 os         1 PUJ      -0.445000
     26 C22         17.2770    18.0720    51.4980 c3         1 PUJ       0.158600
     27 C23         17.3140    18.9760    50.2810 c3         1 PUJ      -0.077400
     28 C24         17.7390    20.4020    50.6070 c3         1 PUJ      -0.076400
     29 C25         17.8270    21.3060    49.3860 c3         1 PUJ      -0.076400
     30 C26         18.2300    22.7330    49.7390 c3         1 PUJ      -0.076400
     31 C27         18.3310    23.6400    48.5210 c3         1 PUJ      -0.086100
     32 C28         20.7120    25.1370    56.0950 ca         1 PUJ      -0.103000
     33 C29         21.5770    25.9770    56.7770 ca         1 PUJ      -0.045000
     34 C30         22.4470    26.7480    56.0230 ca         1 PUJ      -0.174600
     35 C31         23.4760    27.7060    56.4580 c          1 PUJ       0.674700
     36 O4          24.0700    28.1960    55.3650 os         1 PUJ      -0.426100
     37 O5          23.7820    28.0410    57.5700 o          1 PUJ      -0.484000
     38 C32         24.6690    26.8350    53.4880 ca         1 PUJ      -0.093300
     39 C33         24.7720    25.4590    53.6930 ca         1 PUJ      -0.057500
     40 C34         25.8430    24.7270    53.2170 ca         1 PUJ      -0.166500
     41 C35         26.8770    25.3580    52.5170 ca         1 PUJ       0.317500
     42 C36         27.9850    23.2170    51.7860 cy         1 PUJ       0.165300
     43 C37         29.1010    23.4890    50.7760 cy         1 PUJ       0.162800
     44 F2          30.3450    23.0850    51.2240 f          1 PUJ      -0.246500
     45 C38         28.8430    24.9860    50.9740 cy         1 PUJ       0.165300
     46 C39         26.7830    26.7420    52.3180 ca         1 PUJ      -0.139500
     47 C40         25.7040    27.4780    52.7940 ca         1 PUJ       0.110500
     48 H1          23.8830    31.4370    51.4270 ha         1 PUJ       0.108500
     49 H2          20.9160    28.4450    53.9660 ha         1 PUJ       0.114500
     50 H3          19.9950    32.8930    52.9420 h1         1 PUJ       0.066325
     51 H4          19.2060    32.4980    51.3930 h1         1 PUJ       0.066325
     52 H5          20.3000    34.4770    50.3500 h1         1 PUJ       0.075200
     53 H6          22.5510    33.4230    50.1720 h1         1 PUJ       0.066325
     54 H7          22.7890    33.6670    51.9210 h1         1 PUJ       0.066325
     55 H8          19.9880    30.3680    52.8610 ha         1 PUJ       0.115000
     56 H10         20.0490    22.7390    55.2930 hn         1 PUJ       0.312500
     57 H11         26.2330    30.0410    54.8000 h1         1 PUJ       0.059533
     58 H12         27.6400    30.0660    53.7360 h1         1 PUJ       0.059533
     59 H13         26.4470    31.3600    53.6480 h1         1 PUJ       0.059533
     60 H14         25.7150    29.2090    50.0040 h1         1 PUJ       0.059533
     61 H15         26.1660    30.8160    50.5750 h1         1 PUJ       0.059533
     62 H16         27.3190    29.4950    50.6800 h1         1 PUJ       0.059533
     63 H17         21.5830    25.8520    52.8770 ha         1 PUJ       0.152000
     64 H18         18.1350    22.4580    53.0470 h1         1 PUJ       0.065700
     65 H19         19.2700    21.1970    53.5030 h1         1 PUJ       0.065700
     66 H20         16.9960    22.3270    55.2140 h1         1 PUJ       0.046700
     67 H21         18.1790    21.1710    55.8250 h1         1 PUJ       0.046700
     68 H22         17.6000    18.8690    55.4490 h1         1 PUJ       0.023200
     69 H23         18.4100    19.1980    53.9200 h1         1 PUJ       0.023200
     70 H24         15.5200    18.2560    54.2370 h1         1 PUJ       0.052700
     71 H25         16.8930    17.2120    53.8840 h1         1 PUJ       0.052700
     72 H26         17.0810    17.0340    51.2000 h1         1 PUJ       0.021200
     73 H27         18.2650    18.0810    51.9770 h1         1 PUJ       0.021200
     74 H28         16.3360    18.9770    49.7880 hc         1 PUJ       0.046700
     75 H29         18.0150    18.5380    49.5630 hc         1 PUJ       0.046700
     76 H30         18.7150    20.3750    51.1060 hc         1 PUJ       0.042200
     77 H31         17.0430    20.8380    51.3290 hc         1 PUJ       0.042200
     78 H32         16.8610    21.3210    48.8690 hc         1 PUJ       0.034700
     79 H33         18.5470    20.8900    48.6730 hc         1 PUJ       0.034700
     80 H34         19.1880    22.7160    50.2670 hc         1 PUJ       0.042200
     81 H35         17.5050    23.1480    50.4460 hc         1 PUJ       0.042200
     82 H36         18.6160    24.6550    48.7990 hc         1 PUJ       0.030033
     83 H37         19.0740    23.2690    47.8130 hc         1 PUJ       0.030033
     84 H38         17.3770    23.6980    47.9950 hc         1 PUJ       0.030033
     85 H39         20.0120    24.5350    56.6600 ha         1 PUJ       0.120000
     86 H40         21.5680    26.0260    57.8580 ha         1 PUJ       0.140000
     87 H42         24.0100    24.9180    54.2370 ha         1 PUJ       0.114500
     88 H43         25.8740    23.6600    53.3970 ha         1 PUJ       0.115000
     89 H44         27.0690    22.8320    51.3270 h1         1 PUJ       0.066325
     90 H45         28.2540    22.5790    52.6310 h1         1 PUJ       0.066325
     91 H46         28.9570    23.0970    49.7710 h1         1 PUJ       0.075200
     92 H47         29.7140    25.5860    51.2500 h1         1 PUJ       0.066325
     93 H48         28.3420    25.4570    50.1220 h1         1 PUJ       0.066325
     94 H49         27.5780    27.2470    51.7780 ha         1 PUJ       0.108500
     95 C3          26.5730    30.2850    53.7940 c3         1 PUJ      -0.122600
     96 C1          26.2620    29.7480    50.7780 c3         1 PUJ      -0.122600
     97 F1          20.7600    35.2020    52.1640 f          1 PUJ      -0.246500
@<TRIPOS>BOND
     1     1     3 ar  
     2     1    10 ar  
     3     1    15 1   
     4     2    11 1   
     5     2    16 ar  
     6     2    34 ar  
     7     3     4 ar  
     8     3    48 1   
     9     4     9 ar  
    10     4    12 1   
    11     5     9 ar  
    12     5    10 ar  
    13     5    49 1   
    14     6     7 1   
    15     6    12 1   
    16     6    50 1   
    17     6    51 1   
    18     7     8 1   
    19     7    52 1   
    20     7    97 1   
    21     8    12 1   
    22     8    53 1   
    23     8    54 1   
    24     9    55 1   
    25    10    11 1   
    26    11    36 1   
    27    11    38 1   
    28    13    18 1   
    29    13    20 1   
    30    13    56 1   
    31    14    41 1   
    32    14    42 1   
    33    14    45 1   
    34    15    47 1   
    35    15    95 1   
    36    15    96 1   
    37    16    17 ar  
    38    16    63 1   
    39    17    18 1   
    40    17    32 ar  
    41    18    19 2   
    42    20    21 1   
    43    20    64 1   
    44    20    65 1   
    45    21    22 1   
    46    21    66 1   
    47    21    67 1   
    48    22    23 1   
    49    23    24 1   
    50    23    68 1   
    51    23    69 1   
    52    24    25 1   
    53    24    70 1   
    54    24    71 1   
    55    25    26 1   
    56    26    27 1   
    57    26    72 1   
    58    26    73 1   
    59    27    28 1   
    60    27    74 1   
    61    27    75 1   
    62    28    29 1   
    63    28    76 1   
    64    28    77 1   
    65    29    30 1   
    66    29    78 1   
    67    29    79 1   
    68    30    31 1   
    69    30    80 1   
    70    30    81 1   
    71    31    82 1   
    72    31    83 1   
    73    31    84 1   
    74    32    33 ar  
    75    32    85 1   
    76    33    34 ar  
    77    33    86 1   
    78    34    35 1   
    79    35    36 1   
    80    35    37 2   
    81    38    39 ar  
    82    38    47 ar  
    83    39    40 ar  
    84    39    87 1   
    85    40    41 ar  
    86    40    88 1   
    87    41    46 ar  
    88    42    43 1   
    89    42    89 1   
    90    42    90 1   
    91    43    44 1   
    92    43    45 1   
    93    43    91 1   
    94    45    92 1   
    95    45    93 1   
    96    46    47 ar  
    97    46    94 1   
    98    57    95 1   
    99    58    95 1   
   100    59    95 1   
   101    60    96 1   
   102    61    96 1   
   103    62    96 1   
@<TRIPOS>SUBSTRUCTURE
     1 PUJ         1 TEMP              0 ****  ****    0 ROOT
