@<TRIPOS>MOLECULE
PUJ
   97   103     1     0     0
SMALL
No Charge or Current Charge


@<TRIPOS>ATOM
      1 C4          23.6110    29.8140    53.0910 ca         1 PUJ       0.110500
      2 C14         22.8220    26.4480    54.7310 ca         1 PUJ      -0.097300
      3 C5          22.9200    31.0030    52.7980 ca         1 PUJ      -0.139500
      4 C6          21.6560    31.2520    53.3490 ca         1 PUJ       0.317500
      5 C11         21.7830    29.1080    54.5040 ca         1 PUJ      -0.057500
      6 C7          19.8060    33.0730    53.7160 cy         1 PUJ       0.165300
      7 C8          19.9590    34.2040    52.6420 cy         1 PUJ       0.162800
      8 C9          21.4330    33.7070    52.4520 cy         1 PUJ       0.165300
      9 C10         21.0950    30.2950    54.2050 ca         1 PUJ      -0.166500
     10 C12         23.0540    28.8310    53.9390 ca         1 PUJ      -0.093300
     11 C13         23.8100    27.5260    54.3150 c5         1 PUJ       0.340900
     12 N1          20.9780    32.4220    53.0610 nn         1 PUJ      -0.793900
     13 N2          19.2430    23.1220    54.3750 ns         1 PUJ      -0.502900
     14 N3          27.7120    25.3120    50.6490 nn         1 PUJ      -0.793900
     15 SI1         25.2530    29.5520    52.3700 s6         1 PUJ      -0.290000
     16 C15         21.8510    25.7870    53.9630 ca         1 PUJ      -0.041000
     17 C16         21.0380    24.8000    54.5760 ca         1 PUJ      -0.135600
     18 C17         19.9940    24.0890    53.7390 c          1 PUJ       0.611700
     19 O1          19.8190    24.3520    52.5580 o          1 PUJ      -0.587100
     20 C18         18.1740    22.3370    53.7390 c3         1 PUJ       0.058000
     21 C19         16.8730    23.1520    53.5230 c3         1 PUJ       0.142600
     22 O2          15.9250    22.3580    52.7810 os         1 PUJ      -0.433000
     23 C20         15.2690    21.2990    53.5130 c3         1 PUJ       0.121600
     24 C21         14.4640    20.4280    52.5100 c3         1 PUJ       0.162600
     25 O3          15.3630    19.7710    51.5860 os         1 PUJ      -0.445000
     26 C22         16.1170    18.6610    52.1120 c3         1 PUJ       0.158600
     27 C23         17.2130    18.3040    51.0880 c3         1 PUJ      -0.077400
     28 C24         18.2950    19.4010    50.9450 c3         1 PUJ      -0.076400
     29 C25         19.4080    19.0350    49.9390 c3         1 PUJ      -0.076400
     30 C26         20.4840    20.1350    49.8080 c3         1 PUJ      -0.076400
     31 C27         21.5970    19.7750    48.8050 c3         1 PUJ      -0.086100
     32 C28         21.2330    24.5100    55.9590 ca         1 PUJ      -0.103000
     33 C29         22.2150    25.1890    56.7090 ca         1 PUJ      -0.045000
     34 C30         22.9920    26.1540    56.0560 ca         1 PUJ      -0.174600
     35 C31         24.0780    27.0080    56.5770 c          1 PUJ       0.674700
     36 O4          24.5450    27.8020    55.5530 os         1 PUJ      -0.426100
     37 O5          24.5010    27.0170    57.7230 o          1 PUJ      -0.484000
     38 C32         24.8370    26.9490    53.3000 ca         1 PUJ      -0.093300
     39 C33         25.1410    25.5630    53.3010 ca         1 PUJ      -0.057500
     40 C34         26.0870    25.0230    52.4160 ca         1 PUJ      -0.166500
     41 C35         26.7760    25.8460    51.5150 ca         1 PUJ       0.317500
     42 C36         28.4040    23.9890    50.6340 cy         1 PUJ       0.165300
     43 C37         29.1480    24.5030    49.3550 cy         1 PUJ       0.162800
     44 F2          30.4760    24.2030    49.2460 f          1 PUJ      -0.246500
     45 C38         28.7800    25.9510    49.8260 cy         1 PUJ       0.165300
     46 C39         26.5020    27.2190    51.5140 ca         1 PUJ      -0.139500
     47 C40         25.5520    27.7640    52.3950 ca         1 PUJ       0.110500
     48 H1          23.3720    31.7390    52.1440 ha         1 PUJ       0.108500
     49 H2          21.3130    28.4110    55.1930 ha         1 PUJ       0.114500
     50 H3          19.9850    33.4150    54.7430 h1         1 PUJ       0.066325
     51 H4          18.8530    32.5350    53.6520 h1         1 PUJ       0.066325
     52 H5          19.3400    34.0250    51.7560 h1         1 PUJ       0.075200
     53 H6          21.7470    33.6630    51.4020 h1         1 PUJ       0.066325
     54 H7          22.1650    34.2640    53.0490 h1         1 PUJ       0.066325
     55 H8          20.1200    30.4710    54.6510 ha         1 PUJ       0.115000
     56 H10         19.4480    22.9540    55.3510 hn         1 PUJ       0.312500
     57 H11         26.3950    29.9270    54.4480 h1         1 PUJ       0.059533
     58 H12         27.4810    30.1600    53.0310 h1         1 PUJ       0.059533
     59 H13         26.2790    31.4300    53.4620 h1         1 PUJ       0.059533
     60 H14         24.6480    29.7670    50.0520 h1         1 PUJ       0.059533
     61 H15         25.2060    31.3310    50.7460 h1         1 PUJ       0.059533
     62 H16         26.4030    30.0650    50.3160 h1         1 PUJ       0.059533
     63 H17         21.7340    26.0360    52.9100 ha         1 PUJ       0.152000
     64 H18         18.5340    21.9720    52.7680 h1         1 PUJ       0.065700
     65 H19         17.9690    21.4660    54.3720 h1         1 PUJ       0.065700
     66 H20         17.1140    24.0600    52.9560 h1         1 PUJ       0.046700
     67 H21         16.4580    23.4630    54.4910 h1         1 PUJ       0.046700
     68 H22         14.5760    21.7250    54.2500 h1         1 PUJ       0.023200
     69 H23         15.9860    20.6750    54.0580 h1         1 PUJ       0.023200
     70 H24         13.7680    21.0780    51.9630 h1         1 PUJ       0.052700
     71 H25         13.8650    19.6920    53.0620 h1         1 PUJ       0.052700
     72 H26         15.4610    17.7950    52.2680 h1         1 PUJ       0.021200
     73 H27         16.5940    18.9060    53.0690 h1         1 PUJ       0.021200
     74 H28         16.7490    18.1090    50.1130 hc         1 PUJ       0.046700
     75 H29         17.6920    17.3690    51.4040 hc         1 PUJ       0.046700
     76 H30         18.7470    19.5880    51.9270 hc         1 PUJ       0.042200
     77 H31         17.8220    20.3400    50.6290 hc         1 PUJ       0.042200
     78 H32         18.9580    18.8500    48.9560 hc         1 PUJ       0.034700
     79 H33         19.8860    18.0990    50.2550 hc         1 PUJ       0.034700
     80 H34         20.9360    20.3220    50.7900 hc         1 PUJ       0.042200
     81 H35         20.0090    21.0730    49.4920 hc         1 PUJ       0.042200
     82 H36         22.3340    20.5850    48.7450 hc         1 PUJ       0.030033
     83 H37         22.1170    18.8600    49.1140 hc         1 PUJ       0.030033
     84 H38         21.1800    19.6160    47.8030 hc         1 PUJ       0.030033
     85 H39         20.6320    23.7610    56.4690 ha         1 PUJ       0.120000
     86 H40         22.3640    24.9680    57.7650 ha         1 PUJ       0.140000
     87 H42         24.6540    24.8840    53.9960 ha         1 PUJ       0.114500
     88 H43         26.2890    23.9560    52.4400 ha         1 PUJ       0.115000
     89 H44         27.7710    23.1120    50.4500 h1         1 PUJ       0.066325
     90 H45         29.0690    23.8090    51.4880 h1         1 PUJ       0.066325
     91 H46         28.6330    24.2210    48.4310 h1         1 PUJ       0.075200
     92 H47         29.5740    26.4410    50.4040 h1         1 PUJ       0.066325
     93 H48         28.4410    26.6040    49.0130 h1         1 PUJ       0.066325
     94 H49         27.0360    27.8710    50.8310 ha         1 PUJ       0.108500
     95 C3          26.4810    30.3510    53.4390 c3         1 PUJ      -0.122600
     96 C1          25.3910    30.2510    50.6970 c3         1 PUJ      -0.122600
     97 F1          19.7870    35.4910    53.0660 f          1 PUJ      -0.246500
@<TRIPOS>BOND
     1     1     3 ar  
     2     1    10 ar  
     3     1    15 1   
     4     2    11 1   
     5     2    16 ar  
     6     2    34 ar  
     7     3     4 ar  
     8     3    48 1   
     9     4     9 ar  
    10     4    12 1   
    11     5     9 ar  
    12     5    10 ar  
    13     5    49 1   
    14     6     7 1   
    15     6    12 1   
    16     6    50 1   
    17     6    51 1   
    18     7     8 1   
    19     7    52 1   
    20     7    97 1   
    21     8    12 1   
    22     8    53 1   
    23     8    54 1   
    24     9    55 1   
    25    10    11 1   
    26    11    36 1   
    27    11    38 1   
    28    13    18 1   
    29    13    20 1   
    30    13    56 1   
    31    14    41 1   
    32    14    42 1   
    33    14    45 1   
    34    15    47 1   
    35    15    95 1   
    36    15    96 1   
    37    16    17 ar  
    38    16    63 1   
    39    17    18 1   
    40    17    32 ar  
    41    18    19 2   
    42    20    21 1   
    43    20    64 1   
    44    20    65 1   
    45    21    22 1   
    46    21    66 1   
    47    21    67 1   
    48    22    23 1   
    49    23    24 1   
    50    23    68 1   
    51    23    69 1   
    52    24    25 1   
    53    24    70 1   
    54    24    71 1   
    55    25    26 1   
    56    26    27 1   
    57    26    72 1   
    58    26    73 1   
    59    27    28 1   
    60    27    74 1   
    61    27    75 1   
    62    28    29 1   
    63    28    76 1   
    64    28    77 1   
    65    29    30 1   
    66    29    78 1   
    67    29    79 1   
    68    30    31 1   
    69    30    80 1   
    70    30    81 1   
    71    31    82 1   
    72    31    83 1   
    73    31    84 1   
    74    32    33 ar  
    75    32    85 1   
    76    33    34 ar  
    77    33    86 1   
    78    34    35 1   
    79    35    36 1   
    80    35    37 2   
    81    38    39 ar  
    82    38    47 ar  
    83    39    40 ar  
    84    39    87 1   
    85    40    41 ar  
    86    40    88 1   
    87    41    46 ar  
    88    42    43 1   
    89    42    89 1   
    90    42    90 1   
    91    43    44 1   
    92    43    45 1   
    93    43    91 1   
    94    45    92 1   
    95    45    93 1   
    96    46    47 ar  
    97    46    94 1   
    98    57    95 1   
    99    58    95 1   
   100    59    95 1   
   101    60    96 1   
   102    61    96 1   
   103    62    96 1   
@<TRIPOS>SUBSTRUCTURE
     1 PUJ         1 TEMP              0 ****  ****    0 ROOT
