@<TRIPOS>MOLECULE
PUK
   43    44     1     0     0
SMALL
No Charge or Current Charge


@<TRIPOS>ATOM
      1 N            1.3170     1.2020    -0.0140 n8         1 PUK      -0.909800
      2 C1           1.4790    -0.2600     0.2040 c3         1 PUK       0.162500
      3 C2           0.1670    -0.9150     0.7400 c3         1 PUK       0.129800
      4 C3           2.6840    -0.5550     1.1370 c3         1 PUK      -0.030100
      5 C4           4.0310    -0.1210     0.5620 ca         1 PUK      -0.043300
      6 C5           4.7180     0.9850     1.1030 ca         1 PUK      -0.118000
      7 C6           4.6090    -0.8370    -0.5060 ca         1 PUK      -0.118000
      8 C7           5.9640     1.3720     0.5790 ca         1 PUK      -0.136000
      9 C8           5.8550    -0.4490    -1.0290 ca         1 PUK      -0.136000
     10 C9           6.5330     0.6560    -0.4870 ca         1 PUK      -0.145000
     11 N2          -0.9910    -0.6590    -0.1510 n7         1 PUK      -0.769200
     12 C10         -2.2970    -1.2700     0.2870 c3         1 PUK       0.035500
     13 C           -2.3360    -2.8610     0.3440 c          1 PUK       0.928600
     14 O           -2.5550    -3.5010    -0.6820 o          1 PUK      -0.826300
     15 C12         -3.4380    -0.7050    -0.6010 c3         1 PUK      -0.032100
     16 C13         -3.5860     0.8120    -0.4930 ca         1 PUK      -0.056300
     17 C14         -3.1610     1.6480    -1.5450 ca         1 PUK      -0.133500
     18 C15         -4.1520     1.3890     0.6610 ca         1 PUK      -0.133500
     19 C16         -3.2980     3.0440    -1.4420 ca         1 PUK      -0.139500
     20 C17         -4.2890     2.7840     0.7640 ca         1 PUK      -0.139500
     21 C18         -3.8620     3.6120    -0.2880 ca         1 PUK      -0.155000
     22 OXT         -2.1830    -3.4110     1.4320 o          1 PUK      -0.826300
     23 H            0.5550     1.3430    -0.6810 hn         1 PUK       0.338800
     24 H1           1.6970    -0.7190    -0.7710 h1         1 PUK       0.075700
     25 H3           0.3350    -1.9960     0.8360 h1         1 PUK       0.038200
     26 H4          -0.0400    -0.5250     1.7460 h1         1 PUK       0.038200
     27 H5           2.5100    -0.0810     2.1100 hc         1 PUK       0.046200
     28 H6           2.7160    -1.6340     1.3340 hc         1 PUK       0.046200
     29 H7           4.2850     1.5460     1.9280 ha         1 PUK       0.129500
     30 H8           4.0930    -1.6960    -0.9280 ha         1 PUK       0.129500
     31 H9           6.4880     2.2280     1.0000 ha         1 PUK       0.118500
     32 H10          6.2950    -1.0070    -1.8540 ha         1 PUK       0.118500
     33 H11          7.4980     0.9560    -0.8930 ha         1 PUK       0.116000
     34 H12         -1.1310     0.3540    -0.2000 hn         1 PUK       0.304800
     35 H13         -2.5040    -0.9270     1.3100 h1         1 PUK       0.006700
     36 H14         -3.2670    -1.0010    -1.6430 hc         1 PUK       0.063200
     37 H15         -4.3810    -1.1810    -0.3040 hc         1 PUK       0.063200
     38 H16         -2.7210     1.2170    -2.4420 ha         1 PUK       0.136500
     39 H17         -4.4840     0.7540     1.4800 ha         1 PUK       0.136500
     40 H18         -2.9670     3.6840    -2.2580 ha         1 PUK       0.115500
     41 H19         -4.7260     3.2230     1.6590 ha         1 PUK       0.115500
     42 H20         -3.9680     4.6920    -0.2080 ha         1 PUK       0.113000
     43 H2           0.9770     1.6300     0.8520 hn         1 PUK       0.338800
@<TRIPOS>BOND
     1     1     2 1   
     2     1    23 1   
     3     1    43 1   
     4     2     3 1   
     5     2     4 1   
     6     2    24 1   
     7     3    11 1   
     8     3    25 1   
     9     3    26 1   
    10     4     5 1   
    11     4    27 1   
    12     4    28 1   
    13     5     6 ar  
    14     5     7 ar  
    15     6     8 ar  
    16     6    29 1   
    17     7     9 ar  
    18     7    30 1   
    19     8    10 ar  
    20     8    31 1   
    21     9    10 ar  
    22     9    32 1   
    23    10    33 1   
    24    11    12 1   
    25    11    34 1   
    26    12    13 1   
    27    12    15 1   
    28    12    35 1   
    29    13    14 1   
    30    13    22 1   
    31    15    16 1   
    32    15    36 1   
    33    15    37 1   
    34    16    17 ar  
    35    16    18 ar  
    36    17    19 ar  
    37    17    38 1   
    38    18    20 ar  
    39    18    39 1   
    40    19    21 ar  
    41    19    40 1   
    42    20    21 ar  
    43    20    41 1   
    44    21    42 1   
@<TRIPOS>SUBSTRUCTURE
     1 PUK         1 TEMP              0 ****  ****    0 ROOT
