@<TRIPOS>MOLECULE
PUK
   43    44     1     0     0
SMALL
bcc


@<TRIPOS>ATOM
      1 N            1.3180     1.1740     0.1070 n8         1 PUK      -0.909800
      2 C1           1.4080    -0.2760     0.1700 c3         1 PUK       0.162500
      3 C2           0.1480    -0.9730     0.6900 c3         1 PUK       0.129800
      4 C3           2.6060    -0.6800     1.0380 c3         1 PUK      -0.030100
      5 C4           3.9150    -0.1710     0.5110 ca         1 PUK      -0.043300
      6 C5           4.4700     1.0180     0.9790 ca         1 PUK      -0.118000
      7 C6           4.5970    -0.8700    -0.4830 ca         1 PUK      -0.118000
      8 C7           5.6720     1.4940     0.4730 ca         1 PUK      -0.136000
      9 C8           5.7980    -0.3970    -0.9970 ca         1 PUK      -0.136000
     10 C9           6.3400     0.7890    -0.5190 ca         1 PUK      -0.145000
     11 N2          -1.0020    -0.6920    -0.1430 n7         1 PUK      -0.769200
     12 C10         -2.2380    -1.2460     0.3680 c3         1 PUK       0.035500
     13 C           -2.2930    -2.7920     0.3040 c          1 PUK       0.928600
     14 O           -1.5540    -3.3730    -0.5110 o          1 PUK      -0.826300
     15 C12         -3.4240    -0.7030    -0.4490 c3         1 PUK      -0.032100
     16 C13         -3.5210     0.7970    -0.4160 ca         1 PUK      -0.056300
     17 C14         -3.0180     1.5730    -1.4590 ca         1 PUK      -0.133500
     18 C15         -4.0810     1.4500     0.6820 ca         1 PUK      -0.133500
     19 C16         -3.0680     2.9600    -1.4080 ca         1 PUK      -0.139500
     20 C17         -4.1350     2.8350     0.7370 ca         1 PUK      -0.139500
     21 C18         -3.6270     3.5970    -0.3090 ca         1 PUK      -0.155000
     22 OXT         -3.1280    -3.3220     1.0660 o          1 PUK      -0.826300
     23 H            0.6380     1.4660    -0.5830 hn         1 PUK       0.338800
     24 H1           1.5890    -0.6300    -0.8510 h1         1 PUK       0.075700
     25 H3           0.3190    -2.0520     0.6950 h1         1 PUK       0.038200
     26 H4          -0.0090    -0.6740     1.7430 h1         1 PUK       0.038200
     27 H5           2.4440    -0.3140     2.0570 hc         1 PUK       0.046200
     28 H6           2.6350    -1.7710     1.1010 hc         1 PUK       0.046200
     29 H7           3.9570     1.5760     1.7540 ha         1 PUK       0.129500
     30 H8           4.1850    -1.8010    -0.8580 ha         1 PUK       0.129500
     31 H9           6.0880     2.4190     0.8550 ha         1 PUK       0.118500
     32 H10          6.3130    -0.9590    -1.7660 ha         1 PUK       0.118500
     33 H11          7.2790     1.1570    -0.9140 ha         1 PUK       0.116000
     34 H12         -1.1140     0.3150    -0.1830 hn         1 PUK       0.304800
     35 H13         -2.4010    -0.9550     1.4210 h1         1 PUK       0.006700
     36 H14         -3.3230    -1.0430    -1.4830 hc         1 PUK       0.063200
     37 H15         -4.3400    -1.1430    -0.0510 hc         1 PUK       0.063200
     38 H16         -2.5820     1.0830    -2.3220 ha         1 PUK       0.136500
     39 H17         -4.4850     0.8670     1.5020 ha         1 PUK       0.136500
     40 H18         -2.6720     3.5420    -2.2310 ha         1 PUK       0.115500
     41 H19         -4.5770     3.3220     1.5970 ha         1 PUK       0.115500
     42 H20         -3.6710     4.6780    -0.2680 ha         1 PUK       0.113000
     43 H2           1.0110     1.5480     0.9980 hn         1 PUK       0.338800
@<TRIPOS>BOND
     1     1     2 1   
     2     1    23 1   
     3     1    43 1   
     4     2     3 1   
     5     2     4 1   
     6     2    24 1   
     7     3    11 1   
     8     3    25 1   
     9     3    26 1   
    10     4     5 1   
    11     4    27 1   
    12     4    28 1   
    13     5     6 ar  
    14     5     7 ar  
    15     6     8 ar  
    16     6    29 1   
    17     7     9 ar  
    18     7    30 1   
    19     8    10 ar  
    20     8    31 1   
    21     9    10 ar  
    22     9    32 1   
    23    10    33 1   
    24    11    12 1   
    25    11    34 1   
    26    12    13 1   
    27    12    15 1   
    28    12    35 1   
    29    13    14 1   
    30    13    22 1   
    31    15    16 1   
    32    15    36 1   
    33    15    37 1   
    34    16    17 ar  
    35    16    18 ar  
    36    17    19 ar  
    37    17    38 1   
    38    18    20 ar  
    39    18    39 1   
    40    19    21 ar  
    41    19    40 1   
    42    20    21 ar  
    43    20    41 1   
    44    21    42 1   
@<TRIPOS>SUBSTRUCTURE
     1 PUK         1 TEMP              0 ****  ****    0 ROOT
