@<TRIPOS>MOLECULE
PUL
  126   127     1     0     0
SMALL
No Charge or Current Charge


@<TRIPOS>ATOM
      1 C12          6.1890    -7.3180    15.0140 c          1 PUL       0.544300
      2 C13          7.2910    -6.9270    16.0620 c3         1 PUL       0.115500
      3 C14          7.0700    -5.5350    16.6250 c2         1 PUL      -0.238200
      4 C15          7.0780    -5.1970    17.9340 ce         1 PUL      -0.159000
      5 C16          6.7220    -3.8710    18.4620 ce         1 PUL      -0.184000
      6 C17          6.1100    -2.8680    17.7720 cf         1 PUL      -0.164000
      7 C18          5.7000    -1.6000    18.3540 cf         1 PUL      -0.195000
      8 C19          5.0080    -0.6550    17.6790 c2         1 PUL      -0.193200
      9 C20          4.5120     0.6520    18.2660 c3         1 PUL      -0.044200
     10 C11          4.8120    -6.7460    15.2360 ce         1 PUL      -0.189400
     11 C10          4.1140    -6.1830    14.2030 cf         1 PUL      -0.111000
     12 C9           2.7900    -5.5750    14.2930 cf         1 PUL      -0.196000
     13 C8           2.1410    -4.9980    13.2430 ce         1 PUL      -0.151000
     14 C7           0.8400    -4.3020    13.2770 ce         1 PUL      -0.073200
     15 C6           0.2520    -3.9000    14.4320 c2         1 PUL      -0.245200
     16 C5          -1.0570    -3.1570    14.5800 c3         1 PUL       0.242700
     17 C4          -0.9580    -2.0510    15.6450 c2         1 PUL      -0.071400
     18 O12          6.4770    -7.9030    13.9720 o          1 PUL      -0.532100
     19 C21          3.0500     0.5420    18.7700 c3         1 PUL       0.188300
     20 O21          2.2010     0.5120    17.6000 os         1 PUL      -0.449100
     21 C43          4.1930    -6.9790    16.6120 c3         1 PUL      -0.048900
     22 C42          0.1970    -4.0490    11.9190 c3         1 PUL      -0.057900
     23 C41         -2.0010    -2.1200    16.7610 c3         1 PUL      -0.050900
     24 C3          -0.0390    -1.0680    15.5340 c2         1 PUL      -0.229200
     25 C2           0.1280     0.1680    16.4160 c3         1 PUL      -0.093200
     26 C1           0.9610    -0.0730    17.6850 c          1 PUL       0.593100
     27 O1           0.5540    -0.6990    18.6550 o          1 PUL      -0.487000
     28 O5          -2.0610    -4.1300    14.8670 oh         1 PUL      -0.648000
     29 O13          8.6260    -6.9810    15.5100 oh         1 PUL      -0.645000
     30 C22          2.5530     1.6900    19.7150 c3         1 PUL      -0.111700
     31 C23          2.5120     3.1070    19.0420 c3         1 PUL       0.182300
     32 C24          1.6800     4.1840    19.7980 c3         1 PUL      -0.191700
     33 C25          1.7080     5.5150    19.0180 c          1 PUL       0.581300
     34 C26          2.2990     6.7040    19.7050 ce         1 PUL      -0.313200
     35 C27          2.3820     7.9540    19.1670 cf         1 PUL      -0.093000
     36 C28          2.9570     9.1020    19.8540 cf         1 PUL      -0.206000
     37 C29          3.0310    10.3560    19.3340 ce         1 PUL      -0.140000
     38 C30          3.6120    11.5070    20.0320 ce         1 PUL      -0.175000
     39 C31          3.6910    12.7400    19.4860 c2         1 PUL      -0.220200
     40 C44          3.2710     1.6660    21.0940 c3         1 PUL      -0.095100
     41 O23          3.8440     3.6150    18.9030 oh         1 PUL      -0.653000
     42 O25          1.2420     5.6010    17.8880 o          1 PUL      -0.525100
     43 C32          4.2920    13.9650    20.1440 c3         1 PUL       0.175500
     44 O32          3.2750    14.9730    20.2020 oh         1 PUL      -0.710000
     45 C33          5.5760    14.5050    19.4180 c3         1 PUL       0.147300
     46 O33          6.5490    13.4460    19.2590 os         1 PUL      -0.432000
     47 C35          7.1080    12.8460    20.4460 c6         1 PUL       0.375300
     48 C45          0.2070     3.7790    20.0750 c3         1 PUL      -0.081100
     49 O35          7.8410    13.8820    21.1290 os         1 PUL      -0.475000
     50 C39          8.4430    13.4730    22.3700 c6         1 PUL       0.171300
     51 C38          9.5070    12.3530    22.1150 c6         1 PUL       0.100300
     52 C37          8.8230    11.1740    21.3700 c6         1 PUL       0.160300
     53 C36          8.0640    11.6520    20.0850 c6         1 PUL       0.116300
     54 O36          7.3820    10.5050    19.4910 os         1 PUL      -0.448000
     55 O37          9.8200    10.1830    21.0440 oh         1 PUL      -0.698000
     56 O38         10.6760    12.7800    21.3570 os         1 PUL      -0.454000
     57 C47         11.7980    13.3160    22.0870 c3         1 PUL       0.143900
     58 C40          8.9700    14.7560    23.0560 c3         1 PUL      -0.086100
     59 C34          5.3230    15.0660    18.0000 c3         1 PUL      -0.095100
     60 H13          7.1940    -7.6560    16.8780 h1         1 PUL       0.078700
     61 H14          6.8380    -4.7970    15.8580 ha         1 PUL       0.182000
     62 H15          7.3230    -5.9530    18.6840 ha         1 PUL       0.173000
     63 H16          6.9260    -3.7130    19.5230 ha         1 PUL       0.177000
     64 H17          5.8610    -3.0210    16.7210 ha         1 PUL       0.172000
     65 H18          5.9470    -1.4310    19.4050 ha         1 PUL       0.169000
     66 H19          4.7390    -0.8150    16.6330 ha         1 PUL       0.177000
     67 H201         5.1670     0.9500    19.0920 hc         1 PUL       0.068200
     68 H202         4.5820     1.4480    17.5150 hc         1 PUL       0.068200
     69 H10          4.6070    -6.1230    13.2290 ha         1 PUL       0.189000
     70 H9           2.3180    -5.5630    15.2750 ha         1 PUL       0.183000
     71 H8           2.6340    -5.0370    12.2690 ha         1 PUL       0.177000
     72 H6           0.7340    -4.0730    15.3920 ha         1 PUL       0.189000
     73 H5          -1.2990    -2.6640    13.6290 h1         1 PUL       0.039700
     74 H21          2.9770    -0.4060    19.3210 h1         1 PUL       0.065700
     75 H431         4.1530    -6.0490    17.1910 hc         1 PUL       0.047033
     76 H432         4.7590    -7.7110    17.2010 hc         1 PUL       0.047033
     77 H433         3.1700    -7.3670    16.5320 hc         1 PUL       0.047033
     78 H421         0.6950    -4.6010    11.1130 hc         1 PUL       0.045367
     79 H422         0.2340    -2.9850    11.6590 hc         1 PUL       0.045367
     80 H423        -0.8550    -4.3580    11.9110 hc         1 PUL       0.045367
     81 H411        -1.9120    -3.0560    17.3250 hc         1 PUL       0.047033
     82 H412        -3.0190    -2.0660    16.3550 hc         1 PUL       0.047033
     83 H413        -1.9050    -1.3080    17.4880 hc         1 PUL       0.047033
     84 H3           0.6600    -1.0900    14.6950 ha         1 PUL       0.179000
     85 H2C1         0.6120     0.9540    15.8250 hc         1 PUL       0.075200
     86 H2C2        -0.8540     0.5400    16.7270 hc         1 PUL       0.075200
     87 HB          -1.9300    -4.8510    14.2160 ho         1 PUL       0.442000
     88 HA           8.6330    -7.7160    14.8550 ho         1 PUL       0.466000
     89 H22          1.5170     1.4230    19.9390 hc         1 PUL       0.071700
     90 H23          2.0570     2.9920    18.0470 h1         1 PUL       0.099700
     91 H24          2.1500     4.3600    20.7720 hc         1 PUL       0.054700
     92 H26          2.6850     6.5370    20.7080 ha         1 PUL       0.179000
     93 H27          1.9920     8.1210    18.1580 ha         1 PUL       0.192000
     94 H28          3.3530     8.9310    20.8570 ha         1 PUL       0.179000
     95 H29          2.6380    10.5340    18.3310 ha         1 PUL       0.174000
     96 H30          3.9980    11.3250    21.0380 ha         1 PUL       0.187000
     97 H31          3.3100    12.9190    18.4800 ha         1 PUL       0.170000
     98 H441         3.2300     0.6590    21.5280 hc         1 PUL       0.039033
     99 H442         4.3250     1.9540    21.0160 hc         1 PUL       0.039033
    100 H443         2.7830     2.3450    21.8030 hc         1 PUL       0.039033
    101 HD           4.2470     3.6070    19.7960 ho         1 PUL       0.436000
    102 H32          4.5830    13.7020    21.1700 h1         1 PUL       0.079700
    103 HE           2.4740    14.5400    20.5800 ho         1 PUL       0.502000
    104 H33          5.9960    15.3160    20.0280 h1         1 PUL       0.061700
    105 H35          6.3040    12.4720    21.0950 h2         1 PUL       0.024700
    106 H451        -0.2930     3.4570    19.1530 hc         1 PUL       0.043367
    107 H452         0.1450     2.9660    20.8080 hc         1 PUL       0.043367
    108 H453        -0.3530     4.6280    20.4860 hc         1 PUL       0.043367
    109 H39          7.6540    13.0600    23.0170 h1         1 PUL       0.034700
    110 H38          9.8490    11.9760    23.0900 h1         1 PUL       0.057700
    111 H37          8.0750    10.7370    22.0490 h1         1 PUL       0.082700
    112 H36          8.8070    12.0250    19.3660 h1         1 PUL       0.076700
    113 H461         6.4670     9.6880    17.7980 h1         1 PUL       0.033700
    114 H462         7.4680    11.1220    17.4850 h1         1 PUL       0.033700
    115 H463         5.8680    11.2870    18.2560 h1         1 PUL       0.033700
    116 HF          10.6240    10.7080    20.8180 ho         1 PUL       0.511000
    117 H471        11.5400    14.2380    22.6180 h1         1 PUL       0.033033
    118 H472        12.6200    13.5470    21.3990 h1         1 PUL       0.033033
    119 H473        12.1670    12.5880    22.8210 h1         1 PUL       0.033033
    120 H401         9.5320    14.5180    23.9670 hc         1 PUL       0.048367
    121 H402         9.6200    15.3320    22.3880 hc         1 PUL       0.048367
    122 H403         8.1380    15.4090    23.3450 hc         1 PUL       0.048367
    123 H341         6.2580    15.4400    17.5670 hc         1 PUL       0.046033
    124 H342         4.9230    14.2930    17.3330 hc         1 PUL       0.046033
    125 H343         4.6120    15.8990    18.0290 hc         1 PUL       0.046033
    126 C46          6.7690    10.6650    18.1970 c3         1 PUL       0.148900
@<TRIPOS>BOND
     1     1     2 1   
     2     1    10 1   
     3     1    18 2   
     4     2     3 1   
     5     2    29 1   
     6     2    60 1   
     7     3     4 2   
     8     3    61 1   
     9     4     5 1   
    10     4    62 1   
    11     5     6 2   
    12     5    63 1   
    13     6     7 1   
    14     6    64 1   
    15     7     8 2   
    16     7    65 1   
    17     8     9 1   
    18     8    66 1   
    19     9    19 1   
    20     9    67 1   
    21     9    68 1   
    22    10    11 2   
    23    10    21 1   
    24    11    12 1   
    25    11    69 1   
    26    12    13 2   
    27    12    70 1   
    28    13    14 1   
    29    13    71 1   
    30    14    15 2   
    31    14    22 1   
    32    15    16 1   
    33    15    72 1   
    34    16    17 1   
    35    16    28 1   
    36    16    73 1   
    37    17    23 1   
    38    17    24 2   
    39    19    20 1   
    40    19    30 1   
    41    19    74 1   
    42    20    26 1   
    43    21    75 1   
    44    21    76 1   
    45    21    77 1   
    46    22    78 1   
    47    22    79 1   
    48    22    80 1   
    49    23    81 1   
    50    23    82 1   
    51    23    83 1   
    52    24    25 1   
    53    24    84 1   
    54    25    26 1   
    55    25    85 1   
    56    25    86 1   
    57    26    27 2   
    58    28    87 1   
    59    29    88 1   
    60    30    31 1   
    61    30    40 1   
    62    30    89 1   
    63    31    32 1   
    64    31    41 1   
    65    31    90 1   
    66    32    33 1   
    67    32    48 1   
    68    32    91 1   
    69    33    34 1   
    70    33    42 2   
    71    34    35 2   
    72    34    92 1   
    73    35    36 1   
    74    35    93 1   
    75    36    37 2   
    76    36    94 1   
    77    37    38 1   
    78    37    95 1   
    79    38    39 2   
    80    38    96 1   
    81    39    43 1   
    82    39    97 1   
    83    40    98 1   
    84    40    99 1   
    85    40   100 1   
    86    41   101 1   
    87    43    44 1   
    88    43    45 1   
    89    43   102 1   
    90    44   103 1   
    91    45    46 1   
    92    45    59 1   
    93    45   104 1   
    94    46    47 1   
    95    47    49 1   
    96    47    53 1   
    97    47   105 1   
    98    48   106 1   
    99    48   107 1   
   100    48   108 1   
   101    49    50 1   
   102    50    51 1   
   103    50    58 1   
   104    50   109 1   
   105    51    52 1   
   106    51    56 1   
   107    51   110 1   
   108    52    53 1   
   109    52    55 1   
   110    52   111 1   
   111    53    54 1   
   112    53   112 1   
   113    54   126 1   
   114    55   116 1   
   115    56    57 1   
   116    57   117 1   
   117    57   118 1   
   118    57   119 1   
   119    58   120 1   
   120    58   121 1   
   121    58   122 1   
   122    59   123 1   
   123    59   124 1   
   124    59   125 1   
   125   113   126 1   
   126   114   126 1   
   127   115   126 1   
@<TRIPOS>SUBSTRUCTURE
     1 PUL         1 TEMP              0 ****  ****    0 ROOT
