@<TRIPOS>MOLECULE
PUL
  126   127     1     0     0
SMALL
abcg2


@<TRIPOS>ATOM
      1 C12          6.2400    -6.7040    14.0590 c          1 PUL       0.544300
      2 C13          7.4240    -6.5110    15.0100 c3         1 PUL       0.115500
      3 C14          7.2300    -5.1610    15.6430 c2         1 PUL      -0.238200
      4 C15          7.0800    -4.9810    16.9580 ce         1 PUL      -0.159000
      5 C16          6.7580    -3.7180    17.6070 ce         1 PUL      -0.184000
      6 C17          5.9620    -2.7750    17.0760 cf         1 PUL      -0.164000
      7 C18          5.6320    -1.5320    17.7410 cf         1 PUL      -0.195000
      8 C19          4.7810    -0.6270    17.2430 c2         1 PUL      -0.193200
      9 C20          4.4260     0.6520    17.9310 c3         1 PUL      -0.044200
     10 C11          4.8810    -6.7270    14.6360 ce         1 PUL      -0.189400
     11 C10          3.9010    -6.1740    13.8900 cf         1 PUL      -0.111000
     12 C9           2.5550    -5.9260    14.3360 cf         1 PUL      -0.196000
     13 C8           1.6840    -5.2170    13.5970 ce         1 PUL      -0.151000
     14 C7           0.3530    -4.7750    14.0200 ce         1 PUL      -0.073200
     15 C6           0.1250    -4.4780    15.3060 c2         1 PUL      -0.245200
     16 C5          -1.1440    -3.9700    15.9190 c3         1 PUL       0.242700
     17 C4          -1.0590    -2.5210    16.3610 c2         1 PUL      -0.071400
     18 O12          6.4580    -6.7230    12.8620 o          1 PUL      -0.532100
     19 C21          3.0240     0.6100    18.5370 c3         1 PUL       0.188300
     20 O21          2.1130     0.4590    17.4310 os         1 PUL      -0.449100
     21 C43          4.6630    -7.2600    16.0230 c3         1 PUL      -0.048900
     22 C42         -0.6440    -4.6140    12.9090 c3         1 PUL      -0.057900
     23 C41         -2.2000    -2.0590    17.2170 c3         1 PUL      -0.050900
     24 C3          -0.0480    -1.7420    15.9740 c2         1 PUL      -0.229200
     25 C2           0.1580    -0.3020    16.3430 c3         1 PUL      -0.093200
     26 C1           0.9800    -0.2090    17.6100 c          1 PUL       0.593100
     27 O1           0.6410    -0.6990    18.6570 o          1 PUL      -0.487000
     28 O5          -1.4530    -4.7370    17.0730 oh         1 PUL      -0.648000
     29 O13          8.6320    -6.6040    14.3130 oh         1 PUL      -0.645000
     30 C22          2.6120     1.8140    19.3970 c3         1 PUL      -0.111700
     31 C23          2.6340     3.1550    18.6500 c3         1 PUL       0.182300
     32 C24          1.7840     4.2410    19.3290 c3         1 PUL      -0.191700
     33 C25          1.9290     5.5290    18.5320 c          1 PUL       0.581300
     34 C26          2.4130     6.7090    19.2560 ce         1 PUL      -0.313200
     35 C27          2.5780     7.9070    18.6640 cf         1 PUL      -0.093000
     36 C28          3.0510     9.0760    19.3520 cf         1 PUL      -0.206000
     37 C29          3.2360    10.2610    18.7370 ce         1 PUL      -0.140000
     38 C30          3.7120    11.4460    19.4090 ce         1 PUL      -0.175000
     39 C31          3.8990    12.6150    18.7890 c2         1 PUL      -0.220200
     40 C44          3.4120     1.8360    20.6980 c3         1 PUL      -0.095100
     41 O23          3.9430     3.6430    18.4360 oh         1 PUL      -0.653000
     42 O25          1.6230     5.5640    17.3530 o          1 PUL      -0.525100
     43 C32          4.3920    13.8500    19.4760 c3         1 PUL       0.175500
     44 O32          3.5630    14.9620    19.2030 oh         1 PUL      -0.710000
     45 C33          5.8630    14.1750    19.1440 c3         1 PUL       0.147300
     46 O33          6.7060    13.1410    19.6340 os         1 PUL      -0.432000
     47 C35          7.1120    13.2800    20.9440 c6         1 PUL       0.375300
     48 C45          0.2990     3.8860    19.4260 c3         1 PUL      -0.081100
     49 O35          8.1560    14.2190    20.9800 os         1 PUL      -0.475000
     50 C39          8.5870    14.5190    22.2960 c6         1 PUL       0.171300
     51 C38          9.1550    13.2640    22.9560 c6         1 PUL       0.100300
     52 C37          8.1240    12.1330    22.9040 c6         1 PUL       0.160300
     53 C36          7.6010    11.9350    21.4790 c6         1 PUL       0.116300
     54 O36          6.5520    11.0040    21.5090 os         1 PUL      -0.448000
     55 O37          8.6290    10.9430    23.4480 oh         1 PUL      -0.698000
     56 O38         10.3240    12.8150    22.3050 os         1 PUL      -0.454000
     57 C47         11.5220    13.0100    23.0230 c3         1 PUL       0.143900
     58 C40          9.5710    15.6660    22.2140 c3         1 PUL      -0.086100
     59 C34          6.1350    14.3260    17.6590 c3         1 PUL      -0.095100
     60 H13          7.3980    -7.2790    15.7920 h1         1 PUL       0.078700
     61 H14          7.1890    -4.3110    14.9650 ha         1 PUL       0.182000
     62 H15          7.1960    -5.8400    17.6150 ha         1 PUL       0.173000
     63 H16          7.1530    -3.5680    18.6080 ha         1 PUL       0.177000
     64 H17          5.5050    -2.9500    16.1060 ha         1 PUL       0.172000
     65 H18          6.1060    -1.3440    18.7010 ha         1 PUL       0.169000
     66 H19          4.3120    -0.8250    16.2830 ha         1 PUL       0.177000
     67 H201         5.1380     0.8380    18.7380 hc         1 PUL       0.068200
     68 H202         4.5100     1.4870    17.2340 hc         1 PUL       0.068200
     69 H10          4.1490    -5.8050    12.9000 ha         1 PUL       0.189000
     70 H9           2.2590    -6.2790    15.3180 ha         1 PUL       0.183000
     71 H8           1.9840    -4.9190    12.5940 ha         1 PUL       0.177000
     72 H6           0.9480    -4.5700    16.0100 ha         1 PUL       0.189000
     73 H5          -1.9720    -4.0350    15.2000 h1         1 PUL       0.039700
     74 H21          2.9550    -0.2790    19.1700 h1         1 PUL       0.065700
     75 H431         4.7380    -6.4770    16.7790 hc         1 PUL       0.047033
     76 H432         5.3880    -8.0320    16.2790 hc         1 PUL       0.047033
     77 H433         3.6780    -7.7130    16.1160 hc         1 PUL       0.047033
     78 H421        -0.2720    -3.9060    12.1650 hc         1 PUL       0.045367
     79 H422        -1.6120    -4.2550    13.2490 hc         1 PUL       0.045367
     80 H423        -0.7980    -5.5620    12.3890 hc         1 PUL       0.045367
     81 H411        -2.0660    -2.3690    18.2550 hc         1 PUL       0.047033
     82 H412        -3.1430    -2.4870    16.8750 hc         1 PUL       0.047033
     83 H413        -2.3070    -0.9760    17.2170 hc         1 PUL       0.047033
     84 H3           0.7350    -2.1700    15.3580 ha         1 PUL       0.179000
     85 H2C1         0.6480     0.2310    15.5300 hc         1 PUL       0.075200
     86 H2C2        -0.7910     0.2030    16.5400 hc         1 PUL       0.075200
     87 HB          -1.6950    -5.6210    16.7820 ho         1 PUL       0.442000
     88 HA           8.4210    -6.5580    13.3690 ho         1 PUL       0.466000
     89 H22          1.5730     1.6180    19.6750 hc         1 PUL       0.071700
     90 H23          2.2170     3.0020    17.6500 h1         1 PUL       0.099700
     91 H24          2.1590     4.4160    20.3430 hc         1 PUL       0.054700
     92 H26          2.6420     6.5930    20.3100 ha         1 PUL       0.179000
     93 H27          2.3490     8.0120    17.6070 ha         1 PUL       0.192000
     94 H28          3.2660     8.9830    20.4130 ha         1 PUL       0.179000
     95 H29          3.0190    10.3450    17.6750 ha         1 PUL       0.174000
     96 H30          3.9310    11.3640    20.4700 ha         1 PUL       0.187000
     97 H31          3.6860    12.6910    17.7250 ha         1 PUL       0.170000
     98 H441         3.3090     0.8870    21.2260 hc         1 PUL       0.039033
     99 H442         4.4800     2.0000    20.5450 hc         1 PUL       0.039033
    100 H443         3.0510     2.6120    21.3730 hc         1 PUL       0.039033
    101 HD           4.3740     3.7770    19.2860 ho         1 PUL       0.436000
    102 H32          4.3220    13.6970    20.5580 h1         1 PUL       0.079700
    103 HE           3.5280    15.1070    18.2520 ho         1 PUL       0.502000
    104 H33          6.1000    15.1250    19.6380 h1         1 PUL       0.061700
    105 H35          6.2820    13.6340    21.5870 h2         1 PUL       0.024700
    106 H451        -0.0990     3.5730    18.4590 hc         1 PUL       0.043367
    107 H452         0.1290     3.0840    20.1410 hc         1 PUL       0.043367
    108 H453        -0.2860     4.7420    19.7670 hc         1 PUL       0.043367
    109 H39          7.7250    14.8360    22.9050 h1         1 PUL       0.034700
    110 H38          9.3580    13.4930    24.0110 h1         1 PUL       0.057700
    111 H37          7.2790    12.4270    23.5370 h1         1 PUL       0.082700
    112 H36          8.4250    11.5880    20.8360 h1         1 PUL       0.076700
    113 H461         5.7690     9.3460    20.6530 h1         1 PUL       0.033700
    114 H462         7.5360     9.4030    20.6190 h1         1 PUL       0.033700
    115 H463         6.5880    10.4140    19.5090 h1         1 PUL       0.033700
    116 HF           9.4320    10.7160    22.9660 ho         1 PUL       0.511000
    117 H471        11.7650    14.0690    23.1510 h1         1 PUL       0.033033
    118 H472        12.3250    12.5420    22.4550 h1         1 PUL       0.033033
    119 H473        11.4850    12.5460    24.0140 h1         1 PUL       0.033033
    120 H401         9.9180    15.9390    23.2100 hc         1 PUL       0.048367
    121 H402        10.4390    15.4050    21.6080 hc         1 PUL       0.048367
    122 H403         9.1000    16.5450    21.7740 hc         1 PUL       0.048367
    123 H341         7.1730    14.6140    17.4930 hc         1 PUL       0.046033
    124 H342         5.9460    13.4010    17.1140 hc         1 PUL       0.046033
    125 H343         5.5140    15.1090    17.2230 hc         1 PUL       0.046033
    126 C46          6.6260    10.0050    20.5210 c3         1 PUL       0.148900
@<TRIPOS>BOND
     1     1     2 1   
     2     1    10 1   
     3     1    18 2   
     4     2     3 1   
     5     2    29 1   
     6     2    60 1   
     7     3     4 2   
     8     3    61 1   
     9     4     5 1   
    10     4    62 1   
    11     5     6 2   
    12     5    63 1   
    13     6     7 1   
    14     6    64 1   
    15     7     8 2   
    16     7    65 1   
    17     8     9 1   
    18     8    66 1   
    19     9    19 1   
    20     9    67 1   
    21     9    68 1   
    22    10    11 2   
    23    10    21 1   
    24    11    12 1   
    25    11    69 1   
    26    12    13 2   
    27    12    70 1   
    28    13    14 1   
    29    13    71 1   
    30    14    15 2   
    31    14    22 1   
    32    15    16 1   
    33    15    72 1   
    34    16    17 1   
    35    16    28 1   
    36    16    73 1   
    37    17    23 1   
    38    17    24 2   
    39    19    20 1   
    40    19    30 1   
    41    19    74 1   
    42    20    26 1   
    43    21    75 1   
    44    21    76 1   
    45    21    77 1   
    46    22    78 1   
    47    22    79 1   
    48    22    80 1   
    49    23    81 1   
    50    23    82 1   
    51    23    83 1   
    52    24    25 1   
    53    24    84 1   
    54    25    26 1   
    55    25    85 1   
    56    25    86 1   
    57    26    27 2   
    58    28    87 1   
    59    29    88 1   
    60    30    31 1   
    61    30    40 1   
    62    30    89 1   
    63    31    32 1   
    64    31    41 1   
    65    31    90 1   
    66    32    33 1   
    67    32    48 1   
    68    32    91 1   
    69    33    34 1   
    70    33    42 2   
    71    34    35 2   
    72    34    92 1   
    73    35    36 1   
    74    35    93 1   
    75    36    37 2   
    76    36    94 1   
    77    37    38 1   
    78    37    95 1   
    79    38    39 2   
    80    38    96 1   
    81    39    43 1   
    82    39    97 1   
    83    40    98 1   
    84    40    99 1   
    85    40   100 1   
    86    41   101 1   
    87    43    44 1   
    88    43    45 1   
    89    43   102 1   
    90    44   103 1   
    91    45    46 1   
    92    45    59 1   
    93    45   104 1   
    94    46    47 1   
    95    47    49 1   
    96    47    53 1   
    97    47   105 1   
    98    48   106 1   
    99    48   107 1   
   100    48   108 1   
   101    49    50 1   
   102    50    51 1   
   103    50    58 1   
   104    50   109 1   
   105    51    52 1   
   106    51    56 1   
   107    51   110 1   
   108    52    53 1   
   109    52    55 1   
   110    52   111 1   
   111    53    54 1   
   112    53   112 1   
   113    54   126 1   
   114    55   116 1   
   115    56    57 1   
   116    57   117 1   
   117    57   118 1   
   118    57   119 1   
   119    58   120 1   
   120    58   121 1   
   121    58   122 1   
   122    59   123 1   
   123    59   124 1   
   124    59   125 1   
   125   113   126 1   
   126   114   126 1   
   127   115   126 1   
@<TRIPOS>SUBSTRUCTURE
     1 PUL         1 TEMP              0 ****  ****    0 ROOT
