@<TRIPOS>MOLECULE
PUN
   50    49     1     0     0
SMALL
No Charge or Current Charge


@<TRIPOS>ATOM
      1 C            4.2600     0.1270    -0.3750 c3         1 PUN      -0.059700
      2 C1           4.7920    -1.1590    -1.0590 c3         1 PUN      -0.087100
      3 C2           5.0550     1.3490    -0.8930 c3         1 PUN      -0.087100
      4 C3           2.7030     0.3320    -0.6230 c3         1 PUN      -0.072400
      5 C4           1.6910    -0.1800     0.4680 c3         1 PUN      -0.032000
      6 C5           1.9750    -1.6780     0.7870 c3         1 PUN      -0.082600
      7 C6           1.8890     0.6650     1.7570 c3         1 PUN      -0.082600
      8 C7           0.2640     0.0100    -0.1910 c3         1 PUN      -0.067400
      9 C8          -1.1300    -0.0400     0.5720 c3         1 PUN      -0.025000
     10 C9          -1.2140    -1.2520     1.5410 c3         1 PUN      -0.083100
     11 C10         -1.3580     1.2720     1.3730 c3         1 PUN      -0.083100
     12 C11         -2.1950    -0.1930    -0.5920 c3         1 PUN      -0.064400
     13 C12         -3.7480     0.0820    -0.4500 c3         1 PUN      -0.038000
     14 C13         -4.0780     1.6020    -0.3730 c3         1 PUN      -0.084100
     15 C14         -4.4150    -0.4520    -1.7510 c3         1 PUN      -0.084100
     16 C15         -4.4090    -0.6540     0.7430 c3         1 PUN      -0.084100
     17 H            4.5270     0.0370     0.6980 hc         1 PUN       0.046700
     18 H1           4.6490    -1.1100    -2.1460 hc         1 PUN       0.031200
     19 H1A          5.8650    -1.2820    -0.8660 hc         1 PUN       0.031200
     20 H1B          4.2860    -2.0570    -0.6930 hc         1 PUN       0.031200
     21 H2           4.8860     1.5010    -1.9670 hc         1 PUN       0.031200
     22 H2A          4.7510     2.2610    -0.3650 hc         1 PUN       0.031200
     23 H2B          6.1310     1.2120    -0.7310 hc         1 PUN       0.031200
     24 H3           2.5220     1.4060    -0.7590 hc         1 PUN       0.037700
     25 H3A          2.4530    -0.1200    -1.5920 hc         1 PUN       0.037700
     26 H5           2.9870    -1.8100     1.1860 hc         1 PUN       0.032367
     27 H5A          1.3040    -2.0820     1.5470 hc         1 PUN       0.032367
     28 H5B          1.8780    -2.2970    -0.1130 hc         1 PUN       0.032367
     29 H6           1.6640     1.7220     1.5730 hc         1 PUN       0.032367
     30 H6A          1.2550     0.3040     2.5730 hc         1 PUN       0.032367
     31 H6B          2.9190     0.6060     2.1240 hc         1 PUN       0.032367
     32 H7           0.2940     0.9750    -0.7120 hc         1 PUN       0.033700
     33 H7A          0.2240    -0.7310    -0.9990 hc         1 PUN       0.033700
     34 H9          -0.5010    -1.1490     2.3650 hc         1 PUN       0.032367
     35 H9A         -2.1940    -1.3390     2.0140 hc         1 PUN       0.032367
     36 H9B         -1.0120    -2.1920     1.0150 hc         1 PUN       0.032367
     37 H10         -1.3760     2.1440     0.7080 hc         1 PUN       0.032367
     38 H10A        -2.3000     1.2330     1.9290 hc         1 PUN       0.032367
     39 H10B        -0.5870     1.4440     2.1240 hc         1 PUN       0.032367
     40 H11         -1.8470     0.4390    -1.4180 hc         1 PUN       0.034200
     41 H11A        -2.0850    -1.2180    -0.9720 hc         1 PUN       0.034200
     42 H13         -3.5350     2.1630    -1.1430 hc         1 PUN       0.031922
     43 H13A        -5.1500     1.7750    -0.5300 hc         1 PUN       0.031922
     44 H13B        -3.8370     2.0370     0.6010 hc         1 PUN       0.031922
     45 H14         -4.2570    -1.5320    -1.8620 hc         1 PUN       0.031922
     46 H14A        -5.4980    -0.2760    -1.7460 hc         1 PUN       0.031922
     47 H14B        -4.0010     0.0420    -2.6380 hc         1 PUN       0.031922
     48 H15         -4.0970    -0.2270     1.7020 hc         1 PUN       0.031922
     49 H15A        -5.5010    -0.5660     0.6970 hc         1 PUN       0.031922
     50 H15B        -4.1600    -1.7220     0.7330 hc         1 PUN       0.031922
@<TRIPOS>BOND
     1     1     2 1   
     2     1     3 1   
     3     1     4 1   
     4     1    17 1   
     5     2    18 1   
     6     2    19 1   
     7     2    20 1   
     8     3    21 1   
     9     3    22 1   
    10     3    23 1   
    11     4     5 1   
    12     4    24 1   
    13     4    25 1   
    14     5     6 1   
    15     5     7 1   
    16     5     8 1   
    17     6    26 1   
    18     6    27 1   
    19     6    28 1   
    20     7    29 1   
    21     7    30 1   
    22     7    31 1   
    23     8     9 1   
    24     8    32 1   
    25     8    33 1   
    26     9    10 1   
    27     9    11 1   
    28     9    12 1   
    29    10    34 1   
    30    10    35 1   
    31    10    36 1   
    32    11    37 1   
    33    11    38 1   
    34    11    39 1   
    35    12    13 1   
    36    12    40 1   
    37    12    41 1   
    38    13    14 1   
    39    13    15 1   
    40    13    16 1   
    41    14    42 1   
    42    14    43 1   
    43    14    44 1   
    44    15    45 1   
    45    15    46 1   
    46    15    47 1   
    47    16    48 1   
    48    16    49 1   
    49    16    50 1   
@<TRIPOS>SUBSTRUCTURE
     1 PUN         1 TEMP              0 ****  ****    0 ROOT
