@<TRIPOS>MOLECULE
PUN
   50    49     1     0     0
SMALL
bcc


@<TRIPOS>ATOM
      1 C            4.1490     0.1030    -0.3760 c3         1 PUN      -0.059700
      2 C1           4.7040    -1.1070    -1.1250 c3         1 PUN      -0.087100
      3 C2           4.9390     1.3540    -0.7490 c3         1 PUN      -0.087100
      4 C3           2.6440     0.3090    -0.6360 c3         1 PUN      -0.072400
      5 C4           1.6530    -0.1880     0.4470 c3         1 PUN      -0.032000
      6 C5           1.9300    -1.6620     0.7550 c3         1 PUN      -0.082600
      7 C6           1.8630     0.6460     1.7110 c3         1 PUN      -0.082600
      8 C7           0.2520    -0.0060    -0.1950 c3         1 PUN      -0.067400
      9 C8          -1.1030    -0.0390     0.5680 c3         1 PUN      -0.025000
     10 C9          -1.1910    -1.2210     1.5370 c3         1 PUN      -0.083100
     11 C10         -1.3100     1.2610     1.3490 c3         1 PUN      -0.083100
     12 C11         -2.1490    -0.2050    -0.5720 c3         1 PUN      -0.064400
     13 C12         -3.6650     0.0790    -0.4340 c3         1 PUN      -0.038000
     14 C13         -3.9750     1.5800    -0.4210 c3         1 PUN      -0.084100
     15 C14         -4.3090    -0.5030    -1.7000 c3         1 PUN      -0.084100
     16 C15         -4.3230    -0.5880     0.7740 c3         1 PUN      -0.084100
     17 H            4.3070    -0.0710     0.6950 hc         1 PUN       0.046700
     18 H1           4.5960    -0.9760    -2.2040 hc         1 PUN       0.031200
     19 H1A          5.7660    -1.2460    -0.9140 hc         1 PUN       0.031200
     20 H1B          4.1890    -2.0290    -0.8540 hc         1 PUN       0.031200
     21 H2           4.8210     1.5900    -1.8090 hc         1 PUN       0.031200
     22 H2A          4.6010     2.2220    -0.1780 hc         1 PUN       0.031200
     23 H2B          6.0060     1.2240    -0.5570 hc         1 PUN       0.031200
     24 H3           2.4500     1.3780    -0.7780 hc         1 PUN       0.037700
     25 H3A          2.3820    -0.1630    -1.5910 hc         1 PUN       0.037700
     26 H5           2.9550    -1.8090     1.0990 hc         1 PUN       0.032367
     27 H5A          1.2780    -2.0510     1.5360 hc         1 PUN       0.032367
     28 H5B          1.7890    -2.2820    -0.1330 hc         1 PUN       0.032367
     29 H6           1.6570     1.7030     1.5340 hc         1 PUN       0.032367
     30 H6A          1.2280     0.3170     2.5340 hc         1 PUN       0.032367
     31 H6B          2.8940     0.5690     2.0620 hc         1 PUN       0.032367
     32 H7           0.2650     0.9520    -0.7290 hc         1 PUN       0.033700
     33 H7A          0.1960    -0.7670    -0.9840 hc         1 PUN       0.033700
     34 H9          -0.4710    -1.1290     2.3500 hc         1 PUN       0.032367
     35 H9A         -2.1760    -1.2860     1.9980 hc         1 PUN       0.032367
     36 H9B         -1.0050    -2.1690     1.0280 hc         1 PUN       0.032367
     37 H10         -1.2750     2.1340     0.6950 hc         1 PUN       0.032367
     38 H10A        -2.2710     1.2710     1.8640 hc         1 PUN       0.032367
     39 H10B        -0.5480     1.3920     2.1140 hc         1 PUN       0.032367
     40 H11         -1.8150     0.4100    -1.4160 hc         1 PUN       0.034200
     41 H11A        -2.0440    -1.2420    -0.9170 hc         1 PUN       0.034200
     42 H13         -3.5020     2.0850    -1.2670 hc         1 PUN       0.031922
     43 H13A        -5.0530     1.7440    -0.5050 hc         1 PUN       0.031922
     44 H13B        -3.6440     2.0770     0.4890 hc         1 PUN       0.031922
     45 H14         -4.1650    -1.5840    -1.7590 hc         1 PUN       0.031922
     46 H14A        -5.3850    -0.3110    -1.7170 hc         1 PUN       0.031922
     47 H14B        -3.8780    -0.0610    -2.6020 hc         1 PUN       0.031922
     48 H15         -3.9870    -0.1640     1.7210 hc         1 PUN       0.031922
     49 H15A        -5.4070    -0.4570     0.7300 hc         1 PUN       0.031922
     50 H15B        -4.1250    -1.6620     0.7990 hc         1 PUN       0.031922
@<TRIPOS>BOND
     1     1     2 1   
     2     1     3 1   
     3     1     4 1   
     4     1    17 1   
     5     2    18 1   
     6     2    19 1   
     7     2    20 1   
     8     3    21 1   
     9     3    22 1   
    10     3    23 1   
    11     4     5 1   
    12     4    24 1   
    13     4    25 1   
    14     5     6 1   
    15     5     7 1   
    16     5     8 1   
    17     6    26 1   
    18     6    27 1   
    19     6    28 1   
    20     7    29 1   
    21     7    30 1   
    22     7    31 1   
    23     8     9 1   
    24     8    32 1   
    25     8    33 1   
    26     9    10 1   
    27     9    11 1   
    28     9    12 1   
    29    10    34 1   
    30    10    35 1   
    31    10    36 1   
    32    11    37 1   
    33    11    38 1   
    34    11    39 1   
    35    12    13 1   
    36    12    40 1   
    37    12    41 1   
    38    13    14 1   
    39    13    15 1   
    40    13    16 1   
    41    14    42 1   
    42    14    43 1   
    43    14    44 1   
    44    15    45 1   
    45    15    46 1   
    46    15    47 1   
    47    16    48 1   
    48    16    49 1   
    49    16    50 1   
@<TRIPOS>SUBSTRUCTURE
     1 PUN         1 TEMP              0 ****  ****    0 ROOT
