@<TRIPOS>MOLECULE
PUO
   55    58     1     0     0
SMALL
No Charge or Current Charge


@<TRIPOS>ATOM
      1 C1          -4.2920    42.1070     2.9360 c3         1 PUO      -0.154400
      2 C2          -3.6330    40.7700     2.5490 c          1 PUO       0.603100
      3 C3          -1.3500    41.4570     3.4880 c6         1 PUO       0.105000
      4 C7           3.9470    39.6530     1.5180 ca         1 PUO      -0.088000
      5 C8           4.9560    38.6750     1.4480 ca         1 PUO       0.076000
      6 C9           4.6460    37.3530     1.0340 cp         1 PUO      -0.029000
      7 C10          3.3030    37.0500     0.7110 ca         1 PUO       0.180000
      8 C11          2.2920    38.0290     0.7990 ca         1 PUO       0.078100
      9 C12          0.0070    37.7670     1.5640 c3         1 PUO       0.164600
     10 C13         -0.5530    39.2160     1.7610 c6         1 PUO       0.123500
     11 C14         -1.7160    39.1280     2.8010 c6         1 PUO       0.091000
     12 C15          5.7010    36.2970     0.9420 cp         1 PUO      -0.062000
     13 C16          5.8800    35.3560     1.9870 ca         1 PUO       0.166100
     14 C19          7.5480    35.2330    -0.2700 ca         1 PUO      -0.144000
     15 C20          6.5520    36.2190    -0.1890 ca         1 PUO       0.181000
     16 C21          6.3000    39.0500     1.7940 cg         1 PUO      -0.127000
     17 C22          7.4420    39.3500     2.0780 c1         1 PUO      -0.108100
     18 Cl           6.3810    37.3490    -1.5320 cl         1 PUO      -0.196000
     19 C18          7.7140    34.3090     0.7730 ca         1 PUO      -0.054000
     20 C17          6.8790    34.3720     1.9000 ca         1 PUO      -0.205000
     21 O2           5.0890    35.3920     3.0990 oh         1 PUO      -0.523100
     22 C23          8.8360    39.6690     2.4010 c3         1 PUO      -0.007000
     23 F            2.9770    35.7940     0.3180 f          1 PUO      -0.162000
     24 C6           2.6120    39.3410     1.1920 ca         1 PUO      -0.080300
     25 C5           1.5580    40.4400     1.1900 c3         1 PUO       0.210100
     26 O1           0.9910    37.6870     0.5160 os         1 PUO      -0.343100
     27 N1           0.4600    40.2590     2.1720 n3         1 PUO      -0.707600
     28 C4          -0.2060    41.5690     2.4490 c6         1 PUO       0.141800
     29 N           -2.3520    40.4470     3.0550 n          1 PUO      -0.413800
     30 O           -4.2410    39.9780     1.8410 o          1 PUO      -0.611100
     31 C           -4.0270    43.2000     1.8760 c3         1 PUO      -0.085100
     32 H1          -5.3750    41.9610     3.0130 hc         1 PUO       0.064200
     33 H2          -3.9010    42.4650     3.8930 hc         1 PUO       0.064200
     34 H3          -0.9280    41.1490     4.4560 h1         1 PUO       0.058200
     35 H4          -1.7940    42.4490     3.6320 h1         1 PUO       0.058200
     36 H5           4.2050    40.6660     1.8190 ha         1 PUO       0.123000
     37 H6          -0.8380    37.1140     1.3110 h1         1 PUO       0.065700
     38 H7           0.4250    37.4070     2.5140 h1         1 PUO       0.065700
     39 H8          -1.0010    39.5130     0.8010 h1         1 PUO       0.048700
     40 H9          -2.4640    38.4000     2.4570 h1         1 PUO       0.069700
     41 H10         -1.3180    38.7450     3.7510 h1         1 PUO       0.069700
     42 H11          8.1920    35.1860    -1.1450 ha         1 PUO       0.134000
     43 H12          8.4880    33.5450     0.7070 ha         1 PUO       0.119000
     44 H13          7.0150    33.6510     2.7030 ha         1 PUO       0.118000
     45 H14          5.3690    34.6710     3.7020 ho         1 PUO       0.464000
     46 H15          9.1670    40.5460     1.8330 hc         1 PUO       0.053367
     47 H16          8.9400    39.8850     3.4710 hc         1 PUO       0.053367
     48 H17          9.4870    38.8230     2.1500 hc         1 PUO       0.053367
     49 H18          2.0740    41.3890     1.3910 h1         1 PUO       0.047700
     50 H19          1.1450    40.5290     0.1760 h1         1 PUO       0.047700
     51 H21          0.5280    42.2970     2.8240 h1         1 PUO       0.042200
     52 H22         -0.6220    41.9850     1.5190 h1         1 PUO       0.042200
     53 H23         -4.5030    44.1430     2.1710 hc         1 PUO       0.041033
     54 H24         -2.9520    43.3820     1.7560 hc         1 PUO       0.041033
     55 H25         -4.4340    42.9020     0.9020 hc         1 PUO       0.041033
@<TRIPOS>BOND
     1     1     2 1   
     2     1    31 1   
     3     1    32 1   
     4     1    33 1   
     5     2    29 1   
     6     2    30 2   
     7     3    28 1   
     8     3    29 1   
     9     3    34 1   
    10     3    35 1   
    11     4     5 ar  
    12     4    24 ar  
    13     4    36 1   
    14     5     6 ar  
    15     5    16 1   
    16     6     7 ar  
    17     6    12 1   
    18     7     8 ar  
    19     7    23 1   
    20     8    24 ar  
    21     8    26 1   
    22     9    10 1   
    23     9    26 1   
    24     9    37 1   
    25     9    38 1   
    26    10    11 1   
    27    10    27 1   
    28    10    39 1   
    29    11    29 1   
    30    11    40 1   
    31    11    41 1   
    32    12    13 ar  
    33    12    15 ar  
    34    13    20 ar  
    35    13    21 1   
    36    14    15 ar  
    37    14    19 ar  
    38    14    42 1   
    39    15    18 1   
    40    16    17 3   
    41    17    22 1   
    42    19    20 ar  
    43    19    43 1   
    44    20    44 1   
    45    21    45 1   
    46    22    46 1   
    47    22    47 1   
    48    22    48 1   
    49    24    25 1   
    50    25    27 1   
    51    25    49 1   
    52    25    50 1   
    53    27    28 1   
    54    28    51 1   
    55    28    52 1   
    56    31    53 1   
    57    31    54 1   
    58    31    55 1   
@<TRIPOS>SUBSTRUCTURE
     1 PUO         1 TEMP              0 ****  ****    0 ROOT
