@<TRIPOS>MOLECULE
PUO
   55    58     1     0     0
SMALL
abcg2


@<TRIPOS>ATOM
      1 C1          -4.1550    42.0230     3.0530 c3         1 PUO      -0.154400
      2 C2          -3.5940    40.6510     2.7280 c          1 PUO       0.603100
      3 C3          -1.3000    41.3760     3.4510 c6         1 PUO       0.105000
      4 C7           3.9340    39.6900     1.5220 ca         1 PUO      -0.088000
      5 C8           4.9350    38.7150     1.4470 ca         1 PUO       0.076000
      6 C9           4.6090    37.4200     1.0000 cp         1 PUO      -0.029000
      7 C10          3.2940    37.1700     0.6510 ca         1 PUO       0.180000
      8 C11          2.2950    38.1340     0.7290 ca         1 PUO       0.078100
      9 C12          0.0430    37.9020     1.4030 c3         1 PUO       0.164600
     10 C13         -0.5250    39.2970     1.6170 c6         1 PUO       0.123500
     11 C14         -1.6790    39.1410     2.6150 c6         1 PUO       0.091000
     12 C15          5.6290    36.3450     0.9350 cp         1 PUO      -0.062000
     13 C16          5.8910    35.5600     2.0660 ca         1 PUO       0.166100
     14 C19          7.3480    35.1020    -0.2690 ca         1 PUO      -0.144000
     15 C20          6.3740    36.0880    -0.2140 ca         1 PUO       0.181000
     16 C21          6.2790    39.0180     1.8110 cg         1 PUO      -0.127000
     17 C22          7.4250    39.2520     2.1030 c1         1 PUO      -0.108100
     18 CL           6.0830    37.0540    -1.6450 cl         1 PUO      -0.196000
     19 C18          7.5860    34.3420     0.8700 ca         1 PUO      -0.054000
     20 C17          6.8650    34.5640     2.0340 ca         1 PUO      -0.205000
     21 O2           5.1580    35.8210     3.1810 oh         1 PUO      -0.523100
     22 C23          8.8090    39.5250     2.4560 c3         1 PUO      -0.007000
     23 F            2.9560    35.9340     0.2230 f          1 PUO      -0.162000
     24 C6           2.6190    39.4170     1.1660 ca         1 PUO      -0.080300
     25 C5           1.5680    40.4940     1.1890 c3         1 PUO       0.210100
     26 O1           1.0270    37.8000     0.3560 os         1 PUO      -0.343100
     27 N1           0.4620    40.2560     2.1280 n3         1 PUO      -0.707600
     28 C4          -0.1800    41.5380     2.4370 c6         1 PUO       0.141800
     29 N           -2.2780    40.4200     2.9500 n          1 PUO      -0.413800
     30 O           -4.3340    39.7840     2.2480 o          1 PUO      -0.611100
     31 C           -3.9450    43.0090     1.8960 c3         1 PUO      -0.085100
     32 H1          -5.2210    41.8770     3.2200 hc         1 PUO       0.064200
     33 H2          -3.7320    42.4220     3.9740 hc         1 PUO       0.064200
     34 H3          -0.8910    40.9990     4.3930 h1         1 PUO       0.058200
     35 H4          -1.7580    42.3400     3.6400 h1         1 PUO       0.058200
     36 H5           4.1970    40.6850     1.8580 ha         1 PUO       0.123000
     37 H6          -0.7650    37.2410     1.0930 h1         1 PUO       0.065700
     38 H7           0.4760    37.5230     2.3320 h1         1 PUO       0.065700
     39 H8          -0.9390    39.6550     0.6590 h1         1 PUO       0.048700
     40 H9          -2.4470    38.5000     2.1940 h1         1 PUO       0.069700
     41 H10         -1.2980    38.6790     3.5320 h1         1 PUO       0.069700
     42 H11          7.9050    34.9350    -1.1790 ha         1 PUO       0.134000
     43 H12          8.3410    33.5680     0.8480 ha         1 PUO       0.119000
     44 H13          7.0500    33.9720     2.9230 ha         1 PUO       0.118000
     45 H14          5.4240    35.2270     3.8970 ho         1 PUO       0.464000
     46 H15          9.0360    40.5890     2.3530 hc         1 PUO       0.053367
     47 H16          9.0130    39.2340     3.4890 hc         1 PUO       0.053367
     48 H17          9.4910    38.9690     1.8090 hc         1 PUO       0.053367
     49 H18          2.0510    41.4250     1.4820 h1         1 PUO       0.047700
     50 H19          1.1800    40.6410     0.1680 h1         1 PUO       0.047700
     51 H21          0.5750    42.2090     2.8480 h1         1 PUO       0.042200
     52 H22         -0.5890    42.0080     1.5270 h1         1 PUO       0.042200
     53 H23         -4.4240    43.9620     2.1220 hc         1 PUO       0.041033
     54 H24         -2.8860    43.1960     1.7140 hc         1 PUO       0.041033
     55 H25         -4.3820    42.6180     0.9760 hc         1 PUO       0.041033
@<TRIPOS>BOND
     1     1     2 1   
     2     1    31 1   
     3     1    32 1   
     4     1    33 1   
     5     2    29 1   
     6     2    30 2   
     7     3    28 1   
     8     3    29 1   
     9     3    34 1   
    10     3    35 1   
    11     4     5 ar  
    12     4    24 ar  
    13     4    36 1   
    14     5     6 ar  
    15     5    16 1   
    16     6     7 ar  
    17     6    12 1   
    18     7     8 ar  
    19     7    23 1   
    20     8    24 ar  
    21     8    26 1   
    22     9    10 1   
    23     9    26 1   
    24     9    37 1   
    25     9    38 1   
    26    10    11 1   
    27    10    27 1   
    28    10    39 1   
    29    11    29 1   
    30    11    40 1   
    31    11    41 1   
    32    12    13 ar  
    33    12    15 ar  
    34    13    20 ar  
    35    13    21 1   
    36    14    15 ar  
    37    14    19 ar  
    38    14    42 1   
    39    15    18 1   
    40    16    17 3   
    41    17    22 1   
    42    19    20 ar  
    43    19    43 1   
    44    20    44 1   
    45    21    45 1   
    46    22    46 1   
    47    22    47 1   
    48    22    48 1   
    49    24    25 1   
    50    25    27 1   
    51    25    49 1   
    52    25    50 1   
    53    27    28 1   
    54    28    51 1   
    55    28    52 1   
    56    31    53 1   
    57    31    54 1   
    58    31    55 1   
@<TRIPOS>SUBSTRUCTURE
     1 PUO         1 TEMP              0 ****  ****    0 ROOT
