@<TRIPOS>MOLECULE
PUP
   52    54     1     0     0
SMALL
No Charge or Current Charge


@<TRIPOS>ATOM
      1 N01         15.1510     5.3480    20.2550 n          1 PUP      -0.302000
      2 N           15.8030     7.1390    21.6310 ns         1 PUP      -0.480500
      3 C01         13.5050     2.4280    17.1100 c3         1 PUP       0.218600
      4 C02         14.6890     2.4630    18.1100 c5         1 PUP       0.120300
      5 C03         14.3780     1.8100    19.5090 c5         1 PUP       0.241300
      6 C04         14.2390     3.0660    20.4360 c5         1 PUP       0.122300
      7 C05         15.3460     3.9510    19.7870 c5         1 PUP       0.291700
      8 C06         16.0190     5.8530    21.2410 c          1 PUP       0.609000
      9 C07         14.8570     8.0000    21.1850 c          1 PUP       0.592200
     10 C08         13.9890     7.4340    20.1620 cc         1 PUP      -0.448200
     11 C09         14.1400     6.1410    19.7100 cd         1 PUP       0.061600
     12 C10         10.7740    -1.7090    15.7360 c3         1 PUP       0.148600
     13 C11         10.1870    -0.9500    16.9630 c5         1 PUP       0.134300
     14 C12         11.3060    -0.3390    17.9040 c5         1 PUP       0.181300
     15 C13         11.3040    -1.3790    19.0840 c5         1 PUP       0.193300
     16 C            9.7800    -1.6490    19.1720 c5         1 PUP       0.132600
     17 O01         12.3090     2.8760    17.7710 os         1 PUP      -0.638400
     18 O02         15.0680     3.8450    18.3780 os         1 PUP      -0.491000
     19 O03         15.5370     1.0220    19.9050 os         1 PUP      -0.571400
     20 O04         14.3860     2.8010    21.8490 oh         1 PUP      -0.653000
     21 O05         16.9160     5.1970    21.7440 o          1 PUP      -0.581000
     22 O06         14.7590     9.1360    21.6100 o          1 PUP      -0.617000
     23 O07         15.4960    -0.5400    17.9050 o          1 PUP      -0.909833
     24 O08         16.7740    -1.1740    19.8730 o          1 PUP      -0.909833
     25 O09         14.3430    -1.1950    19.9420 o          1 PUP      -0.909833
     26 O10         10.8290     1.8640    15.9410 o          1 PUP      -0.849000
     27 O11          9.7860     3.1910    17.7370 o          1 PUP      -0.849000
     28 O12          9.7450    -2.1060    14.8070 oh         1 PUP      -0.734000
     29 O13          9.4260    -1.8840    17.7940 os         1 PUP      -0.499000
     30 O14         10.8670     0.9710    18.3840 os         1 PUP      -0.595400
     31 O           11.9130    -0.9410    20.3120 oh         1 PUP      -0.808000
     32 P01         15.5370    -0.5020    19.3900 p5         1 PUP       1.304900
     33 P           10.8800     2.2420    17.3830 p5         1 PUP       1.424800
     34 H1          16.4260     7.4940    22.3390 hn         1 PUP       0.307500
     35 H2          13.7370     3.0740    16.2540 h1         1 PUP       0.032200
     36 H3          13.3980     1.4040    16.7330 h1         1 PUP       0.032200
     37 H4          15.5430     1.9740    17.6270 h1         1 PUP       0.091700
     38 H5          13.4660     1.1980    19.5060 h1         1 PUP       0.086700
     39 H6          13.2560     3.5240    20.2590 h1         1 PUP       0.056700
     40 H7          16.3600     3.6020    20.0250 h2         1 PUP       0.104700
     41 H8          13.2200     8.0950    19.7760 ha         1 PUP       0.221000
     42 H9          13.5270     5.6630    18.9430 h4         1 PUP       0.288000
     43 H10         11.3320    -2.5850    16.0940 h1         1 PUP       0.037200
     44 H11         11.4930    -1.0470    15.2340 h1         1 PUP       0.037200
     45 H13         12.2860    -0.2660    17.4160 h1         1 PUP       0.070700
     46 H14         11.8070    -2.2990    18.7540 h1         1 PUP       0.024700
     47 H16          9.5360    -2.5340    19.7740 h1         1 PUP       0.029200
     48 H17         14.4140     3.6690    22.3080 ho         1 PUP       0.460000
     49 H21         10.1880    -2.6100    14.0860 ho         1 PUP       0.463000
     50 H22         12.9310    -1.0570    20.1670 ho         1 PUP       0.619000
     51 H12          9.4990    -0.1780    16.5970 h1         1 PUP       0.076700
     52 H15          9.2200    -0.7840    19.5530 h1         1 PUP       0.029200
@<TRIPOS>BOND
     1     1     7 1   
     2     1     8 1   
     3     1    11 1   
     4     2     8 1   
     5     2     9 1   
     6     2    34 1   
     7     3     4 1   
     8     3    17 1   
     9     3    35 1   
    10     3    36 1   
    11     4     5 1   
    12     4    18 1   
    13     4    37 1   
    14     5     6 1   
    15     5    19 1   
    16     5    38 1   
    17     6     7 1   
    18     6    20 1   
    19     6    39 1   
    20     7    18 1   
    21     7    40 1   
    22     8    21 2   
    23     9    10 1   
    24     9    22 2   
    25    10    11 2   
    26    10    41 1   
    27    11    42 1   
    28    12    13 1   
    29    12    28 1   
    30    12    43 1   
    31    12    44 1   
    32    13    14 1   
    33    13    29 1   
    34    13    51 1   
    35    14    15 1   
    36    14    30 1   
    37    14    45 1   
    38    15    16 1   
    39    15    31 1   
    40    15    46 1   
    41    16    29 1   
    42    16    47 1   
    43    16    52 1   
    44    17    33 1   
    45    19    32 1   
    46    20    48 1   
    47    23    32 1   
    48    24    32 1   
    49    25    32 1   
    50    26    33 1   
    51    27    33 1   
    52    28    49 1   
    53    30    33 1   
    54    31    50 1   
@<TRIPOS>SUBSTRUCTURE
     1 PUP         1 TEMP              0 ****  ****    0 ROOT
