@<TRIPOS>MOLECULE
PUP
   52    54     1     0     0
SMALL
abcg2


@<TRIPOS>ATOM
      1 N01         14.9420     5.0580    20.2700 n          1 PUP      -0.302000
      2 N           15.0710     7.0360    21.4800 ns         1 PUP      -0.480500
      3 C01         14.0520     2.5870    16.9960 c3         1 PUP       0.218600
      4 C02         15.1530     2.3710    18.0090 c5         1 PUP       0.120300
      5 C03         14.7550     1.5320    19.2320 c5         1 PUP       0.241300
      6 C04         14.4360     2.6030    20.2750 c5         1 PUP       0.122300
      7 C05         15.4250     3.7210    19.9190 c5         1 PUP       0.291700
      8 C06         15.6370     5.8110    21.2050 c          1 PUP       0.609000
      9 C07         13.9190     7.5920    20.9250 c          1 PUP       0.592200
     10 C08         13.2840     6.7480    19.9440 cc         1 PUP      -0.448200
     11 C09         13.8080     5.5400    19.6640 cd         1 PUP       0.061600
     12 C10         10.4720    -1.4030    15.9970 c3         1 PUP       0.148600
     13 C11         10.1400    -0.4720    17.1430 c5         1 PUP       0.134300
     14 C12         11.3880     0.0250    17.8830 c5         1 PUP       0.181300
     15 C13         11.4270    -0.9060    19.1180 c5         1 PUP       0.193300
     16 C            9.9430    -1.0900    19.4030 c5         1 PUP       0.132600
     17 O01         12.9100     3.1660    17.6310 os         1 PUP      -0.638400
     18 O02         15.6110     3.6530    18.5200 os         1 PUP      -0.491000
     19 O03         15.8260     0.7200    19.6630 os         1 PUP      -0.571400
     20 O04         14.5650     2.1390    21.6030 oh         1 PUP      -0.653000
     21 O05         16.6620     5.4360    21.7530 o          1 PUP      -0.581000
     22 O06         13.5390     8.7020    21.2830 o          1 PUP      -0.617000
     23 O07         15.4590    -1.0430    17.8500 o          1 PUP      -0.909833
     24 O08         17.0390    -1.4500    19.8410 o          1 PUP      -0.909833
     25 O09         14.5130    -1.4030    20.1890 o          1 PUP      -0.909833
     26 O10         11.2600     2.2390    15.9220 o          1 PUP      -0.849000
     27 O11         10.5250     3.7320    17.9340 o          1 PUP      -0.849000
     28 O12          9.2560    -1.7830    15.3500 oh         1 PUP      -0.734000
     29 O13          9.3210    -1.1600    18.1190 os         1 PUP      -0.499000
     30 O14         11.2300     1.3740    18.3300 os         1 PUP      -0.595400
     31 O           12.1280    -0.4460    20.2340 oh         1 PUP      -0.808000
     32 P01         15.7070    -0.9270    19.3450 p5         1 PUP       1.304900
     33 P           11.3860     2.6640    17.3490 p5         1 PUP       1.424800
     34 H1          15.5610     7.5930    22.1690 hn         1 PUP       0.307500
     35 H2          14.3990     3.2690    16.2150 h1         1 PUP       0.032200
     36 H3          13.8050     1.6320    16.5310 h1         1 PUP       0.032200
     37 H4          15.9930     1.8910    17.5060 h1         1 PUP       0.091700
     38 H5          13.8700     0.9360    19.0260 h1         1 PUP       0.086700
     39 H6          13.4200     2.9540    20.0890 h1         1 PUP       0.056700
     40 H7          16.3620     3.5840    20.4560 h2         1 PUP       0.104700
     41 H8          12.3910     7.0980    19.4500 ha         1 PUP       0.221000
     42 H9          13.3700     4.8780    18.9290 h4         1 PUP       0.288000
     43 H10         11.0000    -2.2850    16.3750 h1         1 PUP       0.037200
     44 H11         11.1300    -0.8740    15.3000 h1         1 PUP       0.037200
     45 H13         12.2900    -0.0700    17.2800 h1         1 PUP       0.070700
     46 H14         11.8380    -1.8610    18.7680 h1         1 PUP       0.024700
     47 H16          9.7220    -2.0110    19.9430 h1         1 PUP       0.029200
     48 H17         14.0470     2.7180    22.1750 ho         1 PUP       0.460000
     49 H21          9.4700    -2.4120    14.6510 ho         1 PUP       0.463000
     50 H22         13.0780    -0.7970    20.1920 ho         1 PUP       0.619000
     51 H12          9.5750     0.3770    16.7560 h1         1 PUP       0.076700
     52 H15          9.5660    -0.2360    19.9790 h1         1 PUP       0.029200
@<TRIPOS>BOND
     1     1     7 1   
     2     1     8 1   
     3     1    11 1   
     4     2     8 1   
     5     2     9 1   
     6     2    34 1   
     7     3     4 1   
     8     3    17 1   
     9     3    35 1   
    10     3    36 1   
    11     4     5 1   
    12     4    18 1   
    13     4    37 1   
    14     5     6 1   
    15     5    19 1   
    16     5    38 1   
    17     6     7 1   
    18     6    20 1   
    19     6    39 1   
    20     7    18 1   
    21     7    40 1   
    22     8    21 2   
    23     9    10 1   
    24     9    22 2   
    25    10    11 2   
    26    10    41 1   
    27    11    42 1   
    28    12    13 1   
    29    12    28 1   
    30    12    43 1   
    31    12    44 1   
    32    13    14 1   
    33    13    29 1   
    34    13    51 1   
    35    14    15 1   
    36    14    30 1   
    37    14    45 1   
    38    15    16 1   
    39    15    31 1   
    40    15    46 1   
    41    16    29 1   
    42    16    47 1   
    43    16    52 1   
    44    17    33 1   
    45    19    32 1   
    46    20    48 1   
    47    23    32 1   
    48    24    32 1   
    49    25    32 1   
    50    26    33 1   
    51    27    33 1   
    52    28    49 1   
    53    30    33 1   
    54    31    50 1   
@<TRIPOS>SUBSTRUCTURE
     1 PUP         1 TEMP              0 ****  ****    0 ROOT
