@<TRIPOS>MOLECULE
PUQ
   53    56     1     0     0
SMALL
No Charge or Current Charge


@<TRIPOS>ATOM
      1 O10         38.1370   -40.9500    -1.8130 oh         1 PUQ      -0.698000
      2 C20         39.0590   -39.9510    -1.3200 c6         1 PUQ       0.162300
      3 C19         40.3520   -39.9680    -2.1830 c6         1 PUQ       0.131300
      4 O9          40.9480   -41.2800    -2.1800 oh         1 PUQ      -0.671000
      5 C18         41.3690   -38.9140    -1.6560 c6         1 PUQ       0.108300
      6 O8          42.5550   -38.9340    -2.4800 oh         1 PUQ      -0.716000
      7 C17         40.6800   -37.5110    -1.6390 c6         1 PUQ       0.140300
      8 C21         41.6010   -36.3900    -1.0520 c3         1 PUQ       0.169600
      9 O7          40.9610   -35.1020    -0.9860 oh         1 PUQ      -0.699000
     10 O6          39.4650   -37.5640    -0.8390 os         1 PUQ      -0.452000
     11 C16         38.4610   -38.5010    -1.3060 c6         1 PUQ       0.389300
     12 O2          38.0030   -38.1060    -2.6200 os         1 PUQ      -0.352100
     13 C8          37.3140   -36.9300    -2.8240 c2         1 PUQ       0.037900
     14 C7          36.8670   -36.1100    -1.8470 ce         1 PUQ      -0.205200
     15 C5          36.1140   -34.8740    -2.1870 ca         1 PUQ      -0.173800
     16 C4          35.4660   -34.0850    -1.2150 ca         1 PUQ       0.217100
     17 O3          35.4750   -34.4490     0.0960 oh         1 PUQ      -0.526100
     18 C3          34.7990   -32.9100    -1.5870 ca         1 PUQ      -0.337000
     19 C2          34.7860   -32.5110    -2.9280 ca         1 PUQ       0.206100
     20 O4          34.1480   -31.3670    -3.2850 oh         1 PUQ      -0.528100
     21 C9          36.9860   -36.6100    -4.2890 c6         1 PUQ       0.289800
     22 O1          36.7260   -35.2000    -4.5070 os         1 PUQ      -0.342100
     23 C6          36.0790   -34.4670    -3.5350 ca         1 PUQ       0.207100
     24 C1          35.4280   -33.2820    -3.9010 ca         1 PUQ      -0.211000
     25 C10         38.0980   -37.0360    -5.2570 ca         1 PUQ      -0.120300
     26 C15         39.3530   -36.3950    -5.2170 ca         1 PUQ      -0.043500
     27 C14         40.3810   -36.7980    -6.0860 ca         1 PUQ      -0.183500
     28 C13         40.1620   -37.8400    -6.9980 ca         1 PUQ       0.146100
     29 O5          41.1640   -38.2220    -7.8380 oh         1 PUQ      -0.534100
     30 C12         38.9150   -38.4830    -7.0440 ca         1 PUQ      -0.183500
     31 C11         37.8840   -38.0840    -6.1740 ca         1 PUQ      -0.043500
     32 HO10        38.7170   -41.6990    -2.0940 ho         1 PUQ       0.522000
     33 H20         39.3390   -40.1970    -0.2850 h1         1 PUQ       0.051700
     34 H19         40.0810   -39.6850    -3.2130 h1         1 PUQ       0.079700
     35 HO9         41.8710   -41.1360    -2.4930 ho         1 PUQ       0.462000
     36 H18         41.6310   -39.1790    -0.6200 h1         1 PUQ       0.047700
     37 HO8         43.3070   -38.6030    -1.9340 ho         1 PUQ       0.508000
     38 H17         40.4200   -37.2230    -2.6680 h1         1 PUQ       0.085700
     39 H211        41.9210   -36.7000    -0.0480 h1         1 PUQ       0.022700
     40 H212        42.5020   -36.3200    -1.6750 h1         1 PUQ       0.022700
     41 HO7         41.5840   -34.4940    -0.5260 ho         1 PUQ       0.503000
     42 H16         37.6070   -38.4970    -0.6130 h2         1 PUQ       0.095700
     43 H7          37.0430   -36.3020    -0.7890 ha         1 PUQ       0.211000
     44 HO3         34.9740   -33.7720     0.5970 ho         1 PUQ       0.464000
     45 H3          34.2990   -32.3050    -0.8340 ha         1 PUQ       0.114000
     46 HO4         33.7650   -30.9710    -2.4750 ho         1 PUQ       0.465000
     47 H1          35.4210   -32.9670    -4.9400 ha         1 PUQ       0.146000
     48 H15         39.5300   -35.5870    -4.5080 ha         1 PUQ       0.122500
     49 H14         41.3470   -36.3020    -6.0500 ha         1 PUQ       0.120000
     50 HO5         40.8330   -38.9540    -8.4010 ho         1 PUQ       0.463000
     51 H12         38.7370   -39.2930    -7.7470 ha         1 PUQ       0.120000
     52 H11         36.9230   -38.5920    -6.2120 ha         1 PUQ       0.122500
     53 H2          36.0650   -37.1540    -4.5430 h1         1 PUQ       0.067700
@<TRIPOS>BOND
     1     1     2 1   
     2     1    32 1   
     3     2     3 1   
     4     2    11 1   
     5     2    33 1   
     6     3     4 1   
     7     3     5 1   
     8     3    34 1   
     9     4    35 1   
    10     5     6 1   
    11     5     7 1   
    12     5    36 1   
    13     6    37 1   
    14     7     8 1   
    15     7    10 1   
    16     7    38 1   
    17     8     9 1   
    18     8    39 1   
    19     8    40 1   
    20     9    41 1   
    21    10    11 1   
    22    11    12 1   
    23    11    42 1   
    24    12    13 1   
    25    13    14 2   
    26    13    21 1   
    27    14    15 1   
    28    14    43 1   
    29    15    16 ar  
    30    15    23 ar  
    31    16    17 1   
    32    16    18 ar  
    33    17    44 1   
    34    18    19 ar  
    35    18    45 1   
    36    19    20 1   
    37    19    24 ar  
    38    20    46 1   
    39    21    22 1   
    40    21    25 1   
    41    21    53 1   
    42    22    23 1   
    43    23    24 ar  
    44    24    47 1   
    45    25    26 ar  
    46    25    31 ar  
    47    26    27 ar  
    48    26    48 1   
    49    27    28 ar  
    50    27    49 1   
    51    28    29 1   
    52    28    30 ar  
    53    29    50 1   
    54    30    31 ar  
    55    30    51 1   
    56    31    52 1   
@<TRIPOS>SUBSTRUCTURE
     1 PUQ         1 TEMP              0 ****  ****    0 ROOT
