@<TRIPOS>MOLECULE
PUQ
   53    56     1     0     0
SMALL
bcc


@<TRIPOS>ATOM
      1 O10         37.9430   -40.6200    -1.8660 oh         1 PUQ      -0.575800
      2 C20         39.0180   -39.8280    -1.4400 c6         1 PUQ       0.139100
      3 C19         40.2180   -39.8950    -2.3760 c6         1 PUQ       0.108100
      4 O9          40.6790   -41.2260    -2.3670 oh         1 PUQ      -0.608800
      5 C18         41.2920   -38.9250    -1.8970 c6         1 PUQ       0.085100
      6 O8          42.3390   -38.9460    -2.8420 oh         1 PUQ      -0.593800
      7 C17         40.7080   -37.5160    -1.7470 c6         1 PUQ       0.117100
      8 C21         41.6970   -36.5670    -1.1100 c3         1 PUQ       0.146400
      9 O7          41.1580   -35.2680    -1.1060 oh         1 PUQ      -0.576800
     10 O6          39.5580   -37.5490    -0.9060 os         1 PUQ      -0.405600
     11 C16         38.5340   -38.3870    -1.3180 c6         1 PUQ       0.342900
     12 O2          38.0290   -38.0220    -2.5780 os         1 PUQ      -0.328900
     13 C8          37.3420   -36.8750    -2.7240 c2         1 PUQ       0.037900
     14 C7          36.9720   -36.0080    -1.7810 ce         1 PUQ      -0.155200
     15 C5          36.1440   -34.8730    -2.1590 ca         1 PUQ      -0.173800
     16 C4          35.5280   -34.0240    -1.2370 ca         1 PUQ       0.217100
     17 O3          35.7000   -34.3090     0.0670 oh         1 PUQ      -0.487100
     18 C3          34.7730   -32.9310    -1.6540 ca         1 PUQ      -0.355000
     19 C2          34.6320   -32.6740    -3.0140 ca         1 PUQ       0.206100
     20 O4          33.9130   -31.6320    -3.4730 oh         1 PUQ      -0.489100
     21 C9          36.9630   -36.6790    -4.1730 c6         1 PUQ       0.266600
     22 O1          36.5970   -35.3320    -4.4500 os         1 PUQ      -0.318900
     23 C6          35.9750   -34.5830    -3.5130 ca         1 PUQ       0.207100
     24 C1          35.2320   -33.5020    -3.9580 ca         1 PUQ      -0.229000
     25 C10         38.1170   -37.0230    -5.0770 ca         1 PUQ      -0.120300
     26 C15         39.2730   -36.2470    -5.0670 ca         1 PUQ      -0.061500
     27 C14         40.3610   -36.5810    -5.8510 ca         1 PUQ      -0.201500
     28 C13         40.3100   -37.7090    -6.6690 ca         1 PUQ       0.146100
     29 O5          41.3970   -37.9910    -7.4130 oh         1 PUQ      -0.495100
     30 C12         39.1570   -38.4880    -6.6900 ca         1 PUQ      -0.201500
     31 C11         38.0730   -38.1390    -5.8960 ca         1 PUQ      -0.061500
     32 HO10        38.2360   -41.5360    -1.8800 ho         1 PUQ       0.423000
     33 H20         39.3530   -40.1240    -0.4350 h1         1 PUQ       0.051700
     34 H19         39.9050   -39.5990    -3.3890 h1         1 PUQ       0.079700
     35 HO9         41.3810   -41.3060    -3.0200 ho         1 PUQ       0.423000
     36 H18         41.6460   -39.2660    -0.9130 h1         1 PUQ       0.047700
     37 HO8         43.1760   -38.8290    -2.3850 ho         1 PUQ       0.409000
     38 H17         40.4480   -37.1350    -2.7440 h1         1 PUQ       0.085700
     39 H211        41.9290   -36.9190    -0.0940 h1         1 PUQ       0.022700
     40 H212        42.6290   -36.6100    -1.6850 h1         1 PUQ       0.022700
     41 HO7         41.8250   -34.6750    -0.7490 ho         1 PUQ       0.404000
     42 H16         37.7490   -38.3100    -0.5570 h2         1 PUQ       0.095700
     43 H7          37.2570   -36.1270    -0.7450 ha         1 PUQ       0.161000
     44 HO3         35.2790   -33.6390     0.6180 ho         1 PUQ       0.425000
     45 H3          34.2990   -32.2870    -0.9200 ha         1 PUQ       0.132000
     46 HO4         33.5310   -31.1370    -2.7400 ho         1 PUQ       0.426000
     47 H1          35.1260   -33.3030    -5.0160 ha         1 PUQ       0.164000
     48 H15         39.3390   -35.3760    -4.4240 ha         1 PUQ       0.140500
     49 H14         41.2570   -35.9730    -5.8300 ha         1 PUQ       0.138000
     50 HO5         41.2580   -38.7960    -7.9240 ho         1 PUQ       0.424000
     51 H12         39.1000   -39.3660    -7.3240 ha         1 PUQ       0.138000
     52 H11         37.1840   -38.7570    -5.9170 ha         1 PUQ       0.140500
     53 H2          36.1140   -37.3390    -4.4110 h1         1 PUQ       0.067700
@<TRIPOS>BOND
     1     1     2 1   
     2     1    32 1   
     3     2     3 1   
     4     2    11 1   
     5     2    33 1   
     6     3     4 1   
     7     3     5 1   
     8     3    34 1   
     9     4    35 1   
    10     5     6 1   
    11     5     7 1   
    12     5    36 1   
    13     6    37 1   
    14     7     8 1   
    15     7    10 1   
    16     7    38 1   
    17     8     9 1   
    18     8    39 1   
    19     8    40 1   
    20     9    41 1   
    21    10    11 1   
    22    11    12 1   
    23    11    42 1   
    24    12    13 1   
    25    13    14 2   
    26    13    21 1   
    27    14    15 1   
    28    14    43 1   
    29    15    16 ar  
    30    15    23 ar  
    31    16    17 1   
    32    16    18 ar  
    33    17    44 1   
    34    18    19 ar  
    35    18    45 1   
    36    19    20 1   
    37    19    24 ar  
    38    20    46 1   
    39    21    22 1   
    40    21    25 1   
    41    21    53 1   
    42    22    23 1   
    43    23    24 ar  
    44    24    47 1   
    45    25    26 ar  
    46    25    31 ar  
    47    26    27 ar  
    48    26    48 1   
    49    27    28 ar  
    50    27    49 1   
    51    28    29 1   
    52    28    30 ar  
    53    29    50 1   
    54    30    31 ar  
    55    30    51 1   
    56    31    52 1   
@<TRIPOS>SUBSTRUCTURE
     1 PUQ         1 TEMP              0 ****  ****    0 ROOT
