@<TRIPOS>MOLECULE
PUR
   31    33     1     0     0
SMALL
abcg2


@<TRIPOS>ATOM
      1 N1          -4.3030    -0.0950    -0.3340 nb         1 PUR      -0.131000
      2 C2          -3.5510    -1.1560    -0.0280 ca         1 PUR       0.174900
      3 N3          -2.2510    -1.1680     0.2190 nb         1 PUR      -0.111000
      4 C4          -1.7000     0.0220     0.1410 ca         1 PUR       0.128500
      5 C5          -2.3810     1.1940    -0.1600 ca         1 PUR      -0.202200
      6 C6          -3.7400     1.0970    -0.4040 ca         1 PUR       0.185900
      7 N7          -1.4500     2.2010    -0.1210 na         1 PUR      -0.234500
      8 C8          -0.2750     1.6830     0.1840 cc         1 PUR       0.333700
      9 N9          -0.3810     0.3670     0.3430 na         1 PUR      -0.239300
     10 C1           0.7180    -0.5530     0.7060 c5         1 PUR       0.304300
     11 C7           1.2190    -1.3650    -0.5040 c5         1 PUR       0.151300
     12 O2           0.6360    -2.6250    -0.4970 oh         1 PUR      -0.664000
     13 C3           2.7410    -1.3260    -0.2980 c5         1 PUR       0.112300
     14 O3           3.0770    -2.3510     0.5950 oh         1 PUR      -0.676000
     15 C9           2.9180     0.0570     0.3190 c5         1 PUR       0.113300
     16 O4           1.7700     0.2100     1.1680 os         1 PUR      -0.415000
     17 C10          3.0010     1.1600    -0.7200 c3         1 PUR       0.131600
     18 O5           2.8980     2.3990    -0.0610 oh         1 PUR      -0.720000
     19 H2          -4.0620    -2.1090     0.0220 h5         1 PUR       0.093100
     20 H6          -4.3560     1.9540    -0.6480 h4         1 PUR       0.064100
     21 HN7         -1.6130     3.1870    -0.2820 hn         1 PUR       0.412000
     22 H8           0.6350     2.2570     0.2890 h5         1 PUR       0.142800
     23 H1           0.3170    -1.2010     1.4890 h2         1 PUR       0.156700
     24 H7           0.9830    -0.8200    -1.4270 h1         1 PUR       0.042700
     25 HO2          0.8090    -3.0470    -1.3450 ho         1 PUR       0.534000
     26 H3           3.2780    -1.4170    -1.2500 h1         1 PUR       0.071700
     27 HO3          4.0290    -2.3340     0.7340 ho         1 PUR       0.526000
     28 H4           3.7950     0.1100     0.9690 h1         1 PUR       0.121700
     29 H5'1         2.2150     1.0440    -1.4800 h1         1 PUR       0.034700
     30 H5'2         3.9580     1.0510    -1.2440 h1         1 PUR       0.034700
     31 HO5          3.0120     3.0980    -0.7130 ho         1 PUR       0.522000
@<TRIPOS>BOND
     1     1     2 ar  
     2     1     6 ar  
     3     2     3 ar  
     4     2    19 1   
     5     3     4 ar  
     6     4     5 ar  
     7     4     9 1   
     8     5     6 ar  
     9     5     7 1   
    10     6    20 1   
    11     7     8 2   
    12     7    21 1   
    13     8     9 1   
    14     8    22 1   
    15     9    10 1   
    16    10    11 1   
    17    10    16 1   
    18    10    23 1   
    19    11    12 1   
    20    11    13 1   
    21    11    24 1   
    22    12    25 1   
    23    13    14 1   
    24    13    15 1   
    25    13    26 1   
    26    14    27 1   
    27    15    16 1   
    28    15    17 1   
    29    15    28 1   
    30    17    18 1   
    31    17    29 1   
    32    17    30 1   
    33    18    31 1   
@<TRIPOS>SUBSTRUCTURE
     1 PUR         1 TEMP              0 ****  ****    0 ROOT
