@<TRIPOS>MOLECULE
PUR
   31    33     1     0     0
SMALL
No Charge or Current Charge


@<TRIPOS>ATOM
      1 N1          -4.1740     0.5530     1.5060 nb         1 PUR      -0.131000
      2 C2          -3.1850    -0.2230     2.0180 ca         1 PUR       0.174900
      3 N3          -1.9810    -0.4890     1.4530 nb         1 PUR      -0.111000
      4 C4          -1.7560     0.0880     0.2550 ca         1 PUR       0.128500
      5 C5          -2.7060     0.8880    -0.3370 ca         1 PUR      -0.202200
      6 C6          -3.9340     1.1220     0.3040 ca         1 PUR       0.185900
      7 N7          -2.2380     1.3450    -1.5520 na         1 PUR      -0.234500
      8 C8          -0.9590     0.8190    -1.7350 cc         1 PUR       0.333700
      9 N9          -0.6660     0.0420    -0.6000 na         1 PUR      -0.239300
     10 C1           0.5730    -0.7120    -0.3730 c5         1 PUR       0.304300
     11 C7           1.6810    -0.6400    -1.4770 c5         1 PUR       0.151300
     12 O2           1.4480    -1.4990    -2.6010 oh         1 PUR      -0.664000
     13 C3           2.8970    -1.1220    -0.6420 c5         1 PUR       0.112300
     14 O3           2.8280    -2.5440    -0.4180 oh         1 PUR      -0.676000
     15 C9           2.6650    -0.2810     0.6620 c5         1 PUR       0.113300
     16 O4           1.2190    -0.2330     0.8320 os         1 PUR      -0.415000
     17 C10          3.2220     1.1720     0.5780 c3         1 PUR       0.131600
     18 O5           3.1890     1.8140     1.8660 oh         1 PUR      -0.720000
     19 H2          -3.3790    -0.6820     2.9860 h5         1 PUR       0.093100
     20 H6          -4.7140     1.7470    -0.1290 h4         1 PUR       0.064100
     21 HN7         -2.7220     1.9480    -2.2110 hn         1 PUR       0.412000
     22 H8          -0.3230     0.9750    -2.5990 h5         1 PUR       0.142800
     23 H1           0.2740    -1.7590    -0.2280 h2         1 PUR       0.156700
     24 H7           1.8290     0.3940    -1.8170 h1         1 PUR       0.042700
     25 HO2          1.8350    -2.3700    -2.3340 ho         1 PUR       0.534000
     26 H3           3.8460    -0.8530    -1.1290 h1         1 PUR       0.071700
     27 HO3          3.6520    -2.8180     0.0540 ho         1 PUR       0.526000
     28 H4           3.1200    -0.7700     1.5340 h1         1 PUR       0.121700
     29 H5'1         2.6360     1.7470    -0.1520 h1         1 PUR       0.034700
     30 H5'2         4.2560     1.1290     0.2100 h1         1 PUR       0.034700
     31 HO5          3.5110     2.7390     1.7410 ho         1 PUR       0.522000
@<TRIPOS>BOND
     1     1     2 ar  
     2     1     6 ar  
     3     2     3 ar  
     4     2    19 1   
     5     3     4 ar  
     6     4     5 ar  
     7     4     9 1   
     8     5     6 ar  
     9     5     7 1   
    10     6    20 1   
    11     7     8 2   
    12     7    21 1   
    13     8     9 1   
    14     8    22 1   
    15     9    10 1   
    16    10    11 1   
    17    10    16 1   
    18    10    23 1   
    19    11    12 1   
    20    11    13 1   
    21    11    24 1   
    22    12    25 1   
    23    13    14 1   
    24    13    15 1   
    25    13    26 1   
    26    14    27 1   
    27    15    16 1   
    28    15    17 1   
    29    15    28 1   
    30    17    18 1   
    31    17    29 1   
    32    17    30 1   
    33    18    31 1   
@<TRIPOS>SUBSTRUCTURE
     1 PUR         1 TEMP              0 ****  ****    0 ROOT
