@<TRIPOS>MOLECULE
PUT
   18    17     1     0     0
SMALL
No Charge or Current Charge


@<TRIPOS>ATOM
      1 N2          -0.2550    -0.0370     3.1400 n8         1 PUT      -0.995700
      2 C4           0.5280    -0.0560     1.8910 c3         1 PUT       0.149800
      3 C3          -0.3870    -0.0350     0.6490 c3         1 PUT      -0.078900
      4 C2           0.4030    -0.0570    -0.6790 c3         1 PUT      -0.078900
      5 C1          -0.5120    -0.0380    -1.9210 c3         1 PUT       0.149800
      6 N1           0.2710    -0.0630    -3.1700 n8         1 PUT      -0.995700
      7 HN21        -0.7710     0.8490     3.1960 hn         1 PUT       0.391000
      8 HN22         0.3910     0.0100     3.9380 hn         1 PUT       0.391000
      9 H41          1.1920     0.8200     1.8770 h1         1 PUT       0.027200
     10 H42          1.1490    -0.9630     1.8780 h1         1 PUT       0.027200
     11 H31         -1.0590    -0.9010     0.6810 hc         1 PUT       0.044700
     12 H32         -1.0160     0.8630     0.6770 hc         1 PUT       0.044700
     13 H21          1.0750     0.8100    -0.7110 hc         1 PUT       0.044700
     14 H22          1.0320    -0.9550    -0.7080 hc         1 PUT       0.044700
     15 H11         -1.1760    -0.9140    -1.9050 h1         1 PUT       0.027200
     16 H12         -1.1330     0.8690    -1.9120 h1         1 PUT       0.027200
     17 HN11        -0.3720     0.0130    -3.9690 hn         1 PUT       0.391000
     18 HN12         0.8300     0.7970    -3.2300 hn         1 PUT       0.391000
@<TRIPOS>BOND
     1     1     2 1   
     2     1     7 1   
     3     1     8 1   
     4     2     3 1   
     5     2     9 1   
     6     2    10 1   
     7     3     4 1   
     8     3    11 1   
     9     3    12 1   
    10     4     5 1   
    11     4    13 1   
    12     4    14 1   
    13     5     6 1   
    14     5    15 1   
    15     5    16 1   
    16     6    17 1   
    17     6    18 1   
@<TRIPOS>SUBSTRUCTURE
     1 PUT         1 TEMP              0 ****  ****    0 ROOT
