@<TRIPOS>MOLECULE
PUT
   18    17     1     0     0
SMALL
bcc


@<TRIPOS>ATOM
      1 N2          -0.2710    -0.0120     3.0890 n8         1 PUT      -0.885300
      2 C4           0.5150    -0.0460     1.8640 c3         1 PUT       0.149800
      3 C3          -0.3840    -0.0210     0.6370 c3         1 PUT      -0.078900
      4 C2           0.4010    -0.0420    -0.6680 c3         1 PUT      -0.078900
      5 C1          -0.4990    -0.0290    -1.8940 c3         1 PUT       0.149800
      6 N1           0.2890    -0.0370    -3.1190 n8         1 PUT      -0.885300
      7 HN21        -0.7270     0.8900     3.1630 hn         1 PUT       0.335800
      8 HN22         0.3460    -0.0680     3.8890 hn         1 PUT       0.335800
      9 H41          1.2430     0.7750     1.7870 h1         1 PUT       0.027200
     10 H42          1.0990    -0.9720     1.8580 h1         1 PUT       0.027200
     11 H31         -1.0670    -0.8750     0.6770 hc         1 PUT       0.044700
     12 H32         -1.0110     0.8780     0.6700 hc         1 PUT       0.044700
     13 H21          1.0710     0.8240    -0.7040 hc         1 PUT       0.044700
     14 H22          1.0410    -0.9290    -0.7040 hc         1 PUT       0.044700
     15 H11         -1.1270    -0.9240    -1.8850 h1         1 PUT       0.027200
     16 H12         -1.1850     0.8280    -1.8210 h1         1 PUT       0.027200
     17 HN11        -0.3290    -0.0710    -3.9200 hn         1 PUT       0.335800
     18 HN12         0.7850     0.8430    -3.1990 hn         1 PUT       0.335800
@<TRIPOS>BOND
     1     1     2 1   
     2     1     7 1   
     3     1     8 1   
     4     2     3 1   
     5     2     9 1   
     6     2    10 1   
     7     3     4 1   
     8     3    11 1   
     9     3    12 1   
    10     4     5 1   
    11     4    13 1   
    12     4    14 1   
    13     5     6 1   
    14     5    15 1   
    15     5    16 1   
    16     6    17 1   
    17     6    18 1   
@<TRIPOS>SUBSTRUCTURE
     1 PUT         1 TEMP              0 ****  ****    0 ROOT
