@<TRIPOS>MOLECULE
PUU
   45    48     1     0     0
SMALL
No Charge or Current Charge


@<TRIPOS>ATOM
      1 N1           8.0630    -0.9370    20.8320 ns         1 PUU      -0.164000
      2 C4          10.4400    -1.5450    21.3520 c6         1 PUU      -0.092400
      3 C5           9.3790    -0.9380    20.3980 c          1 PUU       0.603100
      4 C6           6.9230    -0.3210    20.2520 ca         1 PUU      -0.076000
      5 C7           5.8010    -1.1210    19.9530 ca         1 PUU       0.299900
      6 C8           4.6140     0.6790    19.1160 ca         1 PUU       0.357900
      7 C10          5.5400     2.9420    19.1130 ca         1 PUU      -0.089000
      8 C13          7.8940     1.9700    20.3080 ca         1 PUU      -0.082000
      9 C15         11.3500    -0.4140    21.8390 ca         1 PUU      -0.082300
     10 C17         13.3550     0.9420    21.5620 ca         1 PUU       0.111000
     11 C20         11.0460     0.2530    23.0490 ca         1 PUU      -0.013000
     12 Cl          14.7980     1.3600    20.6460 cl         1 PUU      -0.204000
     13 C16         12.5070    -0.0770    21.1090 ca         1 PUU      -0.067000
     14 C18         13.0520     1.6300    22.7440 ca         1 PUU      -0.080000
     15 C19         11.8960     1.3000    23.4730 ca         1 PUU      -0.123000
     16 N            9.7600     0.0060    23.6720 n          1 PUU      -0.242400
     17 C1           8.9850     0.9750    24.3670 c          1 PUU       0.607100
     18 O            8.1330     0.6320    25.1800 o          1 PUU      -0.603100
     19 C            9.1070     2.4570    23.9940 c3         1 PUU      -0.170100
     20 C3           9.9250    -2.3160    22.6050 c6         1 PUU      -0.085400
     21 C2           9.2550    -1.3970    23.6640 c6         1 PUU       0.101000
     22 O1           9.6970    -0.5080    19.2950 o          1 PUU      -0.563100
     23 C14          6.8530     1.0690    19.9860 ca         1 PUU      -0.002000
     24 C12          7.7600     3.3400    20.0240 ca         1 PUU      -0.090000
     25 C11          6.5870     3.8260    19.4230 ca         1 PUU      -0.104000
     26 C9           5.6680     1.5690    19.4000 ca         1 PUU      -0.090000
     27 N2           4.6680    -0.6450    19.3910 nb         1 PUU      -0.654000
     28 H1           7.8920    -1.4120    21.7080 hn         1 PUU       0.152000
     29 H2          11.0470    -2.2210    20.7350 hc         1 PUU       0.075700
     30 H3           5.8170    -2.1910    20.1590 h4         1 PUU       0.017100
     31 H4           3.6890     1.0370    18.6650 h4         1 PUU       0.021100
     32 H5           4.6290     3.3260    18.6580 ha         1 PUU       0.117000
     33 H6           8.8080     1.6280    20.7830 ha         1 PUU       0.127000
     34 H7          12.7480    -0.6020    20.1870 ha         1 PUU       0.133000
     35 H8          13.7100     2.4220    23.0940 ha         1 PUU       0.134000
     36 H9          11.6970     1.8380    24.3940 ha         1 PUU       0.127000
     37 H10          8.1330     2.9560    24.0560 hc         1 PUU       0.069033
     38 H11          9.7730     2.9450    24.7130 hc         1 PUU       0.069033
     39 H12          9.5660     2.5890    23.0090 hc         1 PUU       0.069033
     40 H13          9.2440    -3.1290    22.3170 hc         1 PUU       0.056200
     41 H14         10.7870    -2.8060    23.0790 hc         1 PUU       0.056200
     42 H15          8.1710    -1.3760    23.4840 h1         1 PUU       0.065700
     43 H16          9.3950    -1.8350    24.6630 h1         1 PUU       0.065700
     44 H17          8.5670     4.0270    20.2720 ha         1 PUU       0.124000
     45 H18          6.4870     4.8870    19.2050 ha         1 PUU       0.117000
@<TRIPOS>BOND
     1     1     3 1   
     2     1     4 1   
     3     1    28 1   
     4     2     3 1   
     5     2     9 1   
     6     2    20 1   
     7     2    29 1   
     8     3    22 2   
     9     4     5 ar  
    10     4    23 ar  
    11     5    27 ar  
    12     5    30 1   
    13     6    26 ar  
    14     6    27 ar  
    15     6    31 1   
    16     7    25 ar  
    17     7    26 ar  
    18     7    32 1   
    19     8    23 ar  
    20     8    24 ar  
    21     8    33 1   
    22     9    11 ar  
    23     9    13 ar  
    24    10    12 1   
    25    10    13 ar  
    26    10    14 ar  
    27    11    15 ar  
    28    11    16 1   
    29    13    34 1   
    30    14    15 ar  
    31    14    35 1   
    32    15    36 1   
    33    16    17 1   
    34    16    21 1   
    35    17    18 2   
    36    17    19 1   
    37    19    37 1   
    38    19    38 1   
    39    19    39 1   
    40    20    21 1   
    41    20    40 1   
    42    20    41 1   
    43    21    42 1   
    44    21    43 1   
    45    23    26 ar  
    46    24    25 ar  
    47    24    44 1   
    48    25    45 1   
@<TRIPOS>SUBSTRUCTURE
     1 PUU         1 TEMP              0 ****  ****    0 ROOT
