@<TRIPOS>MOLECULE
PUU
   45    48     1     0     0
SMALL
abcg2


@<TRIPOS>ATOM
      1 N1           7.9930    -0.9380    20.5710 ns         1 PUU      -0.164000
      2 C4          10.1890    -1.2950    21.5720 c6         1 PUU      -0.092400
      3 C5           9.2370    -0.4180    20.7450 c          1 PUU       0.603100
      4 C6           7.0010    -0.3580    19.7390 ca         1 PUU      -0.076000
      5 C7           6.5730    -1.0440    18.6290 ca         1 PUU       0.299900
      6 C8           5.0790     0.5820    18.0380 ca         1 PUU       0.357900
      7 C10          4.8050     2.6300    19.4000 ca         1 PUU      -0.089000
      8 C13          6.7310     1.6630    21.1970 ca         1 PUU      -0.082000
      9 C15         11.4390    -0.5470    21.9360 ca         1 PUU      -0.082300
     10 C17         13.7870    -0.0930    21.7890 ca         1 PUU       0.111000
     11 C20         11.3420     0.3600    22.9970 ca         1 PUU      -0.013000
     12 CL          15.3330    -0.3740    21.0150 cl         1 PUU      -0.204000
     13 C16         12.6660    -0.7770    21.3340 ca         1 PUU      -0.067000
     14 C18         13.7090     0.7910    22.8550 ca         1 PUU      -0.080000
     15 C19         12.4820     1.0020    23.4710 ca         1 PUU      -0.123000
     16 N           10.0620     0.5530    23.5750 n          1 PUU      -0.242400
     17 C1           9.5110     1.7760    23.8460 c          1 PUU       0.607100
     18 O            8.4450     1.8580    24.4560 o          1 PUU      -0.603100
     19 C           10.1970     3.0190    23.3340 c3         1 PUU      -0.170100
     20 C3           9.5940    -1.8030    22.9010 c6         1 PUU      -0.085400
     21 C2           9.2240    -0.6400    23.8260 c6         1 PUU       0.101000
     22 O1           9.5800     0.6510    20.2590 o          1 PUU      -0.563100
     23 C14          6.4150     0.8970    20.0520 ca         1 PUU      -0.002000
     24 C12          6.1060     2.8640    21.4170 ca         1 PUU      -0.090000
     25 C11          5.1420     3.3590    20.5100 ca         1 PUU      -0.104000
     26 C9           5.4260     1.3830    19.1510 ca         1 PUU      -0.090000
     27 N2           5.6150    -0.5900    17.7840 nb         1 PUU      -0.654000
     28 H1           7.8310    -1.8880    20.8710 hn         1 PUU       0.152000
     29 H2          10.4410    -2.1510    20.9410 hc         1 PUU       0.075700
     30 H3           7.0110    -2.0080    18.3940 h4         1 PUU       0.017100
     31 H4           4.3220     0.9430    17.3480 h4         1 PUU       0.021100
     32 H5           4.0590     2.9900    18.7020 ha         1 PUU       0.117000
     33 H6           7.4620     1.2980    21.9010 ha         1 PUU       0.127000
     34 H7          12.7470    -1.4810    20.5170 ha         1 PUU       0.133000
     35 H8          14.5950     1.2960    23.2140 ha         1 PUU       0.134000
     36 H9          12.4190     1.6660    24.3210 ha         1 PUU       0.127000
     37 H10          9.4190     3.7500    23.1210 hc         1 PUU       0.069033
     38 H11         10.8480     3.4350    24.1050 hc         1 PUU       0.069033
     39 H12         10.7920     2.8390    22.4420 hc         1 PUU       0.069033
     40 H13          8.7110    -2.4240    22.7490 hc         1 PUU       0.056200
     41 H14         10.3480    -2.4380    23.3660 hc         1 PUU       0.056200
     42 H15          8.1930    -0.3370    23.6620 h1         1 PUU       0.065700
     43 H16          9.3150    -0.9400    24.8720 h1         1 PUU       0.065700
     44 H17          6.3520     3.4410    22.3000 ha         1 PUU       0.124000
     45 H18          4.6670     4.3120    20.7020 ha         1 PUU       0.117000
@<TRIPOS>BOND
     1     1     3 1   
     2     1     4 1   
     3     1    28 1   
     4     2     3 1   
     5     2     9 1   
     6     2    20 1   
     7     2    29 1   
     8     3    22 2   
     9     4     5 ar  
    10     4    23 ar  
    11     5    27 ar  
    12     5    30 1   
    13     6    26 ar  
    14     6    27 ar  
    15     6    31 1   
    16     7    25 ar  
    17     7    26 ar  
    18     7    32 1   
    19     8    23 ar  
    20     8    24 ar  
    21     8    33 1   
    22     9    11 ar  
    23     9    13 ar  
    24    10    12 1   
    25    10    13 ar  
    26    10    14 ar  
    27    11    15 ar  
    28    11    16 1   
    29    13    34 1   
    30    14    15 ar  
    31    14    35 1   
    32    15    36 1   
    33    16    17 1   
    34    16    21 1   
    35    17    18 2   
    36    17    19 1   
    37    19    37 1   
    38    19    38 1   
    39    19    39 1   
    40    20    21 1   
    41    20    40 1   
    42    20    41 1   
    43    21    42 1   
    44    21    43 1   
    45    23    26 ar  
    46    24    25 ar  
    47    24    44 1   
    48    25    45 1   
@<TRIPOS>SUBSTRUCTURE
     1 PUU         1 TEMP              0 ****  ****    0 ROOT
