@<TRIPOS>MOLECULE
PUV
   54    57     1     0     0
SMALL
No Charge or Current Charge


@<TRIPOS>ATOM
      1 C22          3.8720    -2.6100    -1.6720 ca         1 PUV      -0.045000
      2 C21          3.0950    -1.6760    -0.9660 ca         1 PUV      -0.224000
      3 C5           2.5860     2.6250    -0.0880 ca         1 PUV      -0.202000
      4 C2           0.5930     0.7470     0.5200 ca         1 PUV      -0.089000
      5 C25          3.6990    -2.7530     1.1260 ca         1 PUV      -0.220000
      6 C15         -7.4380    -0.5410     0.9290 cc         1 PUV       0.303900
      7 C16         -8.0650     0.6570     0.7030 cd         1 PUV      -0.324000
      8 C23          4.5770    -3.6190    -0.9820 ca         1 PUV      -0.189600
      9 C            1.2290     2.9520    -0.2810 ca         1 PUV      -0.028300
     10 C1           0.2090     2.0250     0.0510 ca         1 PUV      -0.115300
     11 C20          3.0170    -1.7400     0.4380 ca         1 PUV       0.125100
     12 C3           1.9450     0.4130     0.6940 ca         1 PUV       0.089100
     13 C4           2.9560     1.3580     0.4090 ca         1 PUV       0.136100
     14 C24          4.4770    -3.6850     0.4220 ca         1 PUV       0.220000
     15 C13         -5.6470     0.7580     0.9540 cd         1 PUV       0.539300
     16 C26          5.4060    -4.6110    -1.7440 c          1 PUV       0.722600
     17 C10         -3.6400     2.2060     0.9820 c          1 PUV       0.606100
     18 C6           0.8800     4.3250    -0.8530 c6         1 PUV      -0.032100
     19 C7          -0.5360     4.3580    -1.4520 c6         1 PUV       0.175800
     20 C8          -1.2960     2.3690    -0.1560 c6         1 PUV       0.270500
     21 C17         -1.8620     1.5000    -1.3180 c3         1 PUV      -0.128100
     22 C18          5.3690     1.9060     0.3260 c3         1 PUV       0.146900
     23 C9          -2.1180     2.1030     1.1490 c3         1 PUV      -0.142400
     24 N14         -6.0740    -0.4870     1.0700 nc         1 PUV      -0.708000
     25 N12         -4.3080     1.0080     1.0620 ns         1 PUV      -0.471400
     26 N           -1.4970     3.7970    -0.4850 n7         1 PUV      -0.882400
     27 O27          4.9260    -5.0930    -2.7600 o          1 PUV      -0.711000
     28 O28          6.5460    -4.8360    -1.3650 o          1 PUV      -0.711000
     29 O11         -4.2110     3.2740     0.8200 o          1 PUV      -0.587100
     30 O19          2.2560    -0.8470     1.1600 os         1 PUV      -0.252200
     31 O            4.2810     1.0140     0.6230 os         1 PUV      -0.305100
     32 F            5.1010    -4.6620     1.1170 f          1 PUV      -0.166000
     33 S           -6.9040     1.9690     0.6570 ss         1 PUV       0.049600
     34 H1           3.9300    -2.5490    -2.7570 ha         1 PUV       0.134000
     35 H2           2.5570    -0.9090    -1.5160 ha         1 PUV       0.102000
     36 H3           3.3370     3.3690    -0.3340 ha         1 PUV       0.113000
     37 H4          -0.1540    -0.0110     0.7390 ha         1 PUV       0.124000
     38 H5           3.6270    -2.8170     2.2080 ha         1 PUV       0.119000
     39 H8           0.9540     5.0760    -0.0550 hc         1 PUV       0.052700
     40 H9           1.6060     4.6150    -1.6240 hc         1 PUV       0.052700
     41 H10         -0.8100     5.3970    -1.6860 h1         1 PUV       0.031700
     42 H11         -0.5630     3.7850    -2.3900 h1         1 PUV       0.031700
     43 H12         -1.2340     1.5750    -2.2130 hc         1 PUV       0.045367
     44 H13         -1.8970     0.4390    -1.0430 hc         1 PUV       0.045367
     45 H14         -2.8770     1.8000    -1.6070 hc         1 PUV       0.045367
     46 H15          5.3770     2.1690    -0.7390 h1         1 PUV       0.039700
     47 H16          5.2900     2.8270     0.9170 h1         1 PUV       0.039700
     48 H17          6.3260     1.4290     0.5670 h1         1 PUV       0.039700
     49 H18         -1.8140     2.8340     1.9070 hc         1 PUV       0.079200
     50 H19         -1.8870     1.1060     1.5340 hc         1 PUV       0.079200
     51 H20         -3.7220     0.2030     1.2190 hn         1 PUV       0.345500
     52 H21         -2.4570     3.9270    -0.8260 hn         1 PUV       0.436000
     53 H6          -7.9220    -1.5070     1.0030 h4         1 PUV       0.036100
     54 H7          -9.1230     0.8400     0.5640 h4         1 PUV       0.155000
@<TRIPOS>BOND
     1     1     2 ar  
     2     1     8 ar  
     3     1    34 1   
     4     2    11 ar  
     5     2    35 1   
     6     3     9 ar  
     7     3    13 ar  
     8     3    36 1   
     9     4    10 ar  
    10     4    12 ar  
    11     4    37 1   
    12     5    11 ar  
    13     5    14 ar  
    14     5    38 1   
    15     6     7 2   
    16     6    24 1   
    17     6    53 1   
    18     7    33 1   
    19     7    54 1   
    20     8    14 ar  
    21     8    16 1   
    22     9    10 ar  
    23     9    18 1   
    24    10    20 1   
    25    11    30 1   
    26    12    13 ar  
    27    12    30 1   
    28    13    31 1   
    29    14    32 1   
    30    15    24 2   
    31    15    25 1   
    32    15    33 1   
    33    16    27 1   
    34    16    28 1   
    35    17    23 1   
    36    17    25 1   
    37    17    29 2   
    38    18    19 1   
    39    18    39 1   
    40    18    40 1   
    41    19    26 1   
    42    19    41 1   
    43    19    42 1   
    44    20    21 1   
    45    20    23 1   
    46    20    26 1   
    47    21    43 1   
    48    21    44 1   
    49    21    45 1   
    50    22    31 1   
    51    22    46 1   
    52    22    47 1   
    53    22    48 1   
    54    23    49 1   
    55    23    50 1   
    56    25    51 1   
    57    26    52 1   
@<TRIPOS>SUBSTRUCTURE
     1 PUV         1 TEMP              0 ****  ****    0 ROOT
