@<TRIPOS>MOLECULE
PUV
   54    57     1     0     0
SMALL
abcg2


@<TRIPOS>ATOM
      1 C22          3.8120    -2.4350    -1.6680 ca         1 PUV      -0.045000
      2 C21          3.1360    -1.4610    -0.9530 ca         1 PUV      -0.224000
      3 C5           2.5560     2.7170     0.0360 ca         1 PUV      -0.202000
      4 C2           0.6750     0.7420     0.4040 ca         1 PUV      -0.089000
      5 C25          3.5780    -2.7030     1.0580 ca         1 PUV      -0.220000
      6 C15         -7.4760    -0.3340     1.4360 cc         1 PUV       0.303900
      7 C16         -7.9440     0.8070     0.8770 cd         1 PUV      -0.324000
      8 C23          4.3900    -3.5600    -1.0800 ca         1 PUV      -0.189600
      9 C            1.2160     2.9720    -0.2700 ca         1 PUV      -0.028300
     10 C1           0.2530     1.9880    -0.0670 ca         1 PUV      -0.115300
     11 C20          3.0220    -1.6000     0.4250 ca         1 PUV       0.125100
     12 C3           1.9930     0.4950     0.7070 ca         1 PUV       0.089100
     13 C4           2.9630     1.4900     0.5340 ca         1 PUV       0.136100
     14 C24          4.2430    -3.6500     0.3020 ca         1 PUV       0.220000
     15 C13         -5.5540     0.6600     1.1230 cd         1 PUV       0.539300
     16 C26          5.1160    -4.5790    -1.9540 c          1 PUV       0.722600
     17 C10         -3.5300     1.9280     0.7190 c          1 PUV       0.606100
     18 C6           0.8440     4.3080    -0.8490 c6         1 PUV      -0.032100
     19 C7          -0.4690     4.1980    -1.5960 c6         1 PUV       0.175800
     20 C8          -1.2250     2.2130    -0.3750 c6         1 PUV       0.270500
     21 C17         -1.6460     1.2700    -1.5160 c3         1 PUV      -0.128100
     22 C18          5.2350     2.1310     0.6940 c3         1 PUV       0.146900
     23 C9          -2.0340     1.8960     0.9060 c3         1 PUV      -0.142400
     24 N14         -6.1180    -0.4140     1.5740 nc         1 PUV      -0.708000
     25 N12         -4.1890     0.8210     1.1550 ns         1 PUV      -0.471400
     26 N           -1.4430     3.6160    -0.6970 n7         1 PUV      -0.882400
     27 O27          5.1220    -4.3330    -3.1750 o          1 PUV      -0.711000
     28 O28          5.6370    -5.5560    -1.3900 o          1 PUV      -0.711000
     29 O11         -4.1450     2.8610     0.2320 o          1 PUV      -0.587100
     30 O19          2.3590    -0.7220     1.2230 os         1 PUV      -0.252200
     31 O            4.2220     1.1570     0.8560 os         1 PUV      -0.305100
     32 F            4.7550    -4.6820     0.9850 f          1 PUV      -0.166000
     33 S           -6.6320     1.8560     0.4920 ss         1 PUV       0.049600
     34 H1           3.8990    -2.3270    -2.7410 ha         1 PUV       0.134000
     35 H2           2.7040    -0.6170    -1.4730 ha         1 PUV       0.102000
     36 H3           3.2770     3.5070    -0.1310 ha         1 PUV       0.113000
     37 H4          -0.0340    -0.0670     0.5390 ha         1 PUV       0.124000
     38 H5           3.4950    -2.8230     2.1310 ha         1 PUV       0.119000
     39 H8           0.7450     5.0480    -0.0490 hc         1 PUV       0.052700
     40 H9           1.6380     4.6620    -1.5100 hc         1 PUV       0.052700
     41 H10         -0.8230     5.1860    -1.8900 h1         1 PUV       0.031700
     42 H11         -0.3190     3.6270    -2.5240 h1         1 PUV       0.031700
     43 H12         -1.0750     1.4850    -2.4190 hc         1 PUV       0.045367
     44 H13         -1.4790     0.2220    -1.2630 hc         1 PUV       0.045367
     45 H14         -2.7040     1.3900    -1.7580 hc         1 PUV       0.045367
     46 H15          5.3340     2.4450    -0.3480 h1         1 PUV       0.039700
     47 H16          5.0530     3.0120     1.3130 h1         1 PUV       0.039700
     48 H17          6.1640     1.6640     1.0090 h1         1 PUV       0.039700
     49 H18         -1.7810     2.6450     1.6610 hc         1 PUV       0.079200
     50 H19         -1.7420     0.9270     1.3120 hc         1 PUV       0.079200
     51 H20         -3.6730     0.0530     1.5620 hn         1 PUV       0.345500
     52 H21         -2.3790     3.7390    -1.0550 hn         1 PUV       0.436000
     53 H6          -8.0900    -1.1570     1.7700 h4         1 PUV       0.036100
     54 H7          -8.9650     1.0860     0.6760 h4         1 PUV       0.155000
@<TRIPOS>BOND
     1     1     2 ar  
     2     1     8 ar  
     3     1    34 1   
     4     2    11 ar  
     5     2    35 1   
     6     3     9 ar  
     7     3    13 ar  
     8     3    36 1   
     9     4    10 ar  
    10     4    12 ar  
    11     4    37 1   
    12     5    11 ar  
    13     5    14 ar  
    14     5    38 1   
    15     6     7 2   
    16     6    24 1   
    17     6    53 1   
    18     7    33 1   
    19     7    54 1   
    20     8    14 ar  
    21     8    16 1   
    22     9    10 ar  
    23     9    18 1   
    24    10    20 1   
    25    11    30 1   
    26    12    13 ar  
    27    12    30 1   
    28    13    31 1   
    29    14    32 1   
    30    15    24 2   
    31    15    25 1   
    32    15    33 1   
    33    16    27 1   
    34    16    28 1   
    35    17    23 1   
    36    17    25 1   
    37    17    29 2   
    38    18    19 1   
    39    18    39 1   
    40    18    40 1   
    41    19    26 1   
    42    19    41 1   
    43    19    42 1   
    44    20    21 1   
    45    20    23 1   
    46    20    26 1   
    47    21    43 1   
    48    21    44 1   
    49    21    45 1   
    50    22    31 1   
    51    22    46 1   
    52    22    47 1   
    53    22    48 1   
    54    23    49 1   
    55    23    50 1   
    56    25    51 1   
    57    26    52 1   
@<TRIPOS>SUBSTRUCTURE
     1 PUV         1 TEMP              0 ****  ****    0 ROOT
