@<TRIPOS>MOLECULE
PUW
   26    25     1     0     0
SMALL
No Charge or Current Charge


@<TRIPOS>ATOM
      1 O3P         -2.0510     1.4050     0.6440 o          1 PUW      -0.913500
      2 P           -2.9440     0.3780     0.0400 p5         1 PUW       1.307500
      3 O1P         -3.5730    -0.4750     1.0870 o          1 PUW      -0.913500
      4 O2P         -4.0010     1.0390    -0.7770 o          1 PUW      -0.913500
      5 C1P         -1.9800    -0.6490    -1.0870 c3         1 PUW      -0.475400
      6 C1          -0.7970    -1.1340    -0.3040 c          1 PUW       0.638100
      7 O1          -0.8260    -2.1390     0.3930 o          1 PUW      -0.746100
      8 NE           0.3520    -0.4180    -0.5040 ns         1 PUW      -0.542900
      9 CD           1.6420    -0.7230     0.1070 c3         1 PUW       0.130000
     10 CG           2.7500     0.2270    -0.3860 c3         1 PUW      -0.095400
     11 CB           4.1280    -0.0800     0.2420 c3         1 PUW      -0.074400
     12 CA           5.2380     0.8720    -0.2520 c3         1 PUW       0.139800
     13 N            6.5400     0.5530     0.3630 n8         1 PUW      -0.999200
     14 H1P1        -2.6130    -1.4780    -1.4200 hc         1 PUW       0.036200
     15 H1P2        -1.6860     0.0070    -1.9130 hc         1 PUW       0.036200
     16 HE           0.2680     0.4000    -1.0940 hn         1 PUW       0.398500
     17 HD1C         1.5420    -0.6390     1.1970 h1         1 PUW       0.005700
     18 HD2C         1.9110    -1.7580    -0.1410 h1         1 PUW       0.005700
     19 HG1C         2.8270     0.1540    -1.4780 hc         1 PUW       0.052200
     20 HG2C         2.4690     1.2610    -0.1490 hc         1 PUW       0.052200
     21 HB1C         4.0480    -0.0080     1.3340 hc         1 PUW       0.033200
     22 HB2C         4.4050    -1.1150     0.0070 hc         1 PUW       0.033200
     23 HA1C         5.3350     0.7910    -1.3440 h1         1 PUW       0.028200
     24 HA2C         4.9740     1.9090    -0.0020 h1         1 PUW       0.028200
     25 HN1          6.8230    -0.3900     0.0720 hn         1 PUW       0.374000
     26 HN2          7.2600     1.1620    -0.0450 hn         1 PUW       0.374000
@<TRIPOS>BOND
     1     1     2 1   
     2     2     3 1   
     3     2     4 1   
     4     2     5 1   
     5     5     6 1   
     6     5    14 1   
     7     5    15 1   
     8     6     7 2   
     9     6     8 1   
    10     8     9 1   
    11     8    16 1   
    12     9    10 1   
    13     9    17 1   
    14     9    18 1   
    15    10    11 1   
    16    10    19 1   
    17    10    20 1   
    18    11    12 1   
    19    11    21 1   
    20    11    22 1   
    21    12    13 1   
    22    12    23 1   
    23    12    24 1   
    24    13    25 1   
    25    13    26 1   
@<TRIPOS>SUBSTRUCTURE
     1 PUW         1 TEMP              0 ****  ****    0 ROOT
