@<TRIPOS>MOLECULE
PUW
   26    25     1     0     0
SMALL
bcc


@<TRIPOS>ATOM
      1 O3P         -1.1630     1.6870    -0.5450 o          1 PUW      -0.913500
      2 P           -2.4200     0.8490    -0.1960 p5         1 PUW       1.149700
      3 O1P         -2.5980     0.6130     1.3020 o          1 PUW      -0.913500
      4 O2P         -3.6770     1.3100    -0.9310 o          1 PUW      -0.913500
      5 C1P         -2.0190    -0.8350    -0.9270 c3         1 PUW      -0.317600
      6 C1          -0.7320    -1.4390    -0.4270 c          1 PUW       0.705100
      7 O1          -0.6250    -2.6150    -0.0750 o          1 PUW      -0.746100
      8 NE           0.3030    -0.5860    -0.4270 ns         1 PUW      -0.609900
      9 CD           1.6230    -0.9510     0.0250 c3         1 PUW       0.130000
     10 CG           2.6030     0.1840    -0.2300 c3         1 PUW      -0.095400
     11 CB           4.0220    -0.1610     0.1960 c3         1 PUW      -0.074400
     12 CA           4.9990     0.9740    -0.0690 c3         1 PUW       0.139800
     13 N            6.3460     0.6170     0.3530 n8         1 PUW      -0.888800
     14 H1P1        -2.8340    -1.5400    -0.7490 hc         1 PUW       0.036200
     15 H1P2        -1.9370    -0.7170    -2.0130 hc         1 PUW       0.036200
     16 HE           0.0350     0.4080    -0.5300 hn         1 PUW       0.398500
     17 HD1C         1.6240    -1.2010     1.0930 h1         1 PUW       0.005700
     18 HD2C         1.9610    -1.8490    -0.5000 h1         1 PUW       0.005700
     19 HG1C         2.5900     0.4370    -1.2950 hc         1 PUW       0.052200
     20 HG2C         2.2680     1.0800     0.3040 hc         1 PUW       0.052200
     21 HB1C         4.0450    -0.4120     1.2610 hc         1 PUW       0.033200
     22 HB2C         4.3560    -1.0570    -0.3400 hc         1 PUW       0.033200
     23 HA1C         4.9330     1.2550    -1.1310 h1         1 PUW       0.028200
     24 HA2C         4.6830     1.8540     0.4980 h1         1 PUW       0.028200
     25 HN1          6.6830    -0.1420    -0.2270 hn         1 PUW       0.318800
     26 HN2          6.9710     1.3910     0.1720 hn         1 PUW       0.318800
@<TRIPOS>BOND
     1     1     2 1   
     2     2     3 1   
     3     2     4 1   
     4     2     5 1   
     5     5     6 1   
     6     5    14 1   
     7     5    15 1   
     8     6     7 2   
     9     6     8 1   
    10     8     9 1   
    11     8    16 1   
    12     9    10 1   
    13     9    17 1   
    14     9    18 1   
    15    10    11 1   
    16    10    19 1   
    17    10    20 1   
    18    11    12 1   
    19    11    21 1   
    20    11    22 1   
    21    12    13 1   
    22    12    23 1   
    23    12    24 1   
    24    13    25 1   
    25    13    26 1   
@<TRIPOS>SUBSTRUCTURE
     1 PUW         1 TEMP              0 ****  ****    0 ROOT
