@<TRIPOS>MOLECULE
PUX
   43    46     1     0     0
SMALL
No Charge or Current Charge


@<TRIPOS>ATOM
      1 C18          4.9640     0.0190    -0.0680 c3         1 PUX      -0.088100
      2 C17          3.5880    -0.6740    -0.0500 c3         1 PUX      -0.073400
      3 C16          2.5000     0.1630     0.6560 c3         1 PUX      -0.098400
      4 C15          1.1220    -0.5310     0.6560 c3         1 PUX       0.076600
      5 N2           0.0560     0.3010     1.2440 na         1 PUX      -0.262300
      6 C12         -0.5170     0.0760     2.4690 ca         1 PUX       0.145500
      7 N4          -0.2680    -0.8540     3.4120 nb         1 PUX      -0.246000
      8 C14         -1.0360    -0.7730     4.5210 ca         1 PUX       0.408200
      9 N3          -2.0110     0.1220     4.7890 nb         1 PUX      -0.330000
     10 C11         -1.4860     1.0370     2.6320 ca         1 PUX      -0.118600
     11 C13         -2.2320     1.0270     3.8300 ca         1 PUX       0.478900
     12 N5          -3.2080     1.9360     4.0860 nv         1 PUX      -1.054900
     13 N1          -1.5730     1.9060     1.5450 nc         1 PUX      -0.548100
     14 C10         -0.6240     1.4220     0.7240 cd         1 PUX       0.401800
     15 C9          -0.3310     2.0770    -0.6070 c3         1 PUX      -0.042400
     16 C1          -0.2420     1.1180    -1.7890 ca         1 PUX      -0.092300
     17 C6           0.9490     1.0270    -2.5480 ca         1 PUX      -0.099000
     18 C5           0.9960     0.1070    -3.6020 ca         1 PUX       0.053100
     19 C2          -1.3500     0.2960    -2.1190 ca         1 PUX      -0.098000
     20 O3           2.0550    -0.1070    -4.4220 os         1 PUX      -0.344100
     21 C3          -1.2710    -0.6170    -3.1930 ca         1 PUX      -0.093000
     22 C4          -0.0730    -0.6850    -3.9120 ca         1 PUX       0.054100
     23 O1           0.1750    -1.4990    -4.9700 os         1 PUX      -0.341100
     24 C7           1.5820    -1.2030    -5.2840 c5         1 PUX       0.373600
     25 F           -0.7980    -1.6960     5.4770 f          1 PUX      -0.206200
     26 H181         5.7030    -0.6110    -0.5770 hc         1 PUX       0.035033
     27 H182         4.9080     0.9780    -0.5970 hc         1 PUX       0.035033
     28 H183         5.3170     0.2060     0.9530 hc         1 PUX       0.035033
     29 H171         3.2780    -0.8760    -1.0830 hc         1 PUX       0.039700
     30 H172         3.6830    -1.6450     0.4520 hc         1 PUX       0.039700
     31 H161         2.8020     0.3580     1.6920 hc         1 PUX       0.054200
     32 H162         2.4200     1.1360     0.1580 hc         1 PUX       0.054200
     33 H151         0.8410    -0.7950    -0.3710 h1         1 PUX       0.071200
     34 H152         1.1960    -1.4710     1.2170 h1         1 PUX       0.071200
     35 H5N1        -3.4860     2.0710     5.0540 hn         1 PUX       0.511500
     36 H5N2        -3.2400     2.7550     3.4840 hn         1 PUX       0.511500
     37 H9C1        -1.1060     2.8230    -0.8200 hc         1 PUX       0.076200
     38 H9C2         0.5970     2.6510    -0.5130 hc         1 PUX       0.076200
     39 H6           1.8160     1.6430    -2.3220 ha         1 PUX       0.133000
     40 H2          -2.2690     0.3620    -1.5400 ha         1 PUX       0.132000
     41 H3          -2.1150    -1.2520    -3.4540 ha         1 PUX       0.138000
     42 H7C1         2.1880    -2.0960    -5.0920 h2         1 PUX       0.065700
     43 H7C2         1.6700    -0.9080    -6.3370 h2         1 PUX       0.065700
@<TRIPOS>BOND
     1     1     2 1   
     2     1    26 1   
     3     1    27 1   
     4     1    28 1   
     5     2     3 1   
     6     2    29 1   
     7     2    30 1   
     8     3     4 1   
     9     3    31 1   
    10     3    32 1   
    11     4     5 1   
    12     4    33 1   
    13     4    34 1   
    14     5     6 1   
    15     5    14 1   
    16     6     7 ar  
    17     6    10 ar  
    18     7     8 ar  
    19     8     9 ar  
    20     8    25 1   
    21     9    11 ar  
    22    10    11 ar  
    23    10    13 1   
    24    11    12 1   
    25    12    35 1   
    26    12    36 1   
    27    13    14 2   
    28    14    15 1   
    29    15    16 1   
    30    15    37 1   
    31    15    38 1   
    32    16    17 ar  
    33    16    19 ar  
    34    17    18 ar  
    35    17    39 1   
    36    18    20 1   
    37    18    22 ar  
    38    19    21 ar  
    39    19    40 1   
    40    20    24 1   
    41    21    22 ar  
    42    21    41 1   
    43    22    23 1   
    44    23    24 1   
    45    24    42 1   
    46    24    43 1   
@<TRIPOS>SUBSTRUCTURE
     1 PUX         1 TEMP              0 ****  ****    0 ROOT
