@<TRIPOS>MOLECULE
PUX
   43    46     1     0     0
SMALL
abcg2


@<TRIPOS>ATOM
      1 C18          5.2750     0.0840     1.1020 c3         1 PUX      -0.088100
      2 C17          3.9640    -0.4550     0.5480 c3         1 PUX      -0.073400
      3 C16          2.7480     0.2470     1.1390 c3         1 PUX      -0.098400
      4 C15          1.4520    -0.3340     0.5920 c3         1 PUX       0.076600
      5 N2           0.2740     0.3490     1.0930 na         1 PUX      -0.262300
      6 C12         -0.3320     0.1120     2.2830 ca         1 PUX       0.145500
      7 N4          -0.0180    -0.8090     3.1990 nb         1 PUX      -0.246000
      8 C14         -0.8270    -0.7310     4.2180 ca         1 PUX       0.408200
      9 N3          -1.8380     0.0690     4.4620 nb         1 PUX      -0.330000
     10 C11         -1.3610     1.0340     2.3690 ca         1 PUX      -0.118600
     11 C13         -2.1460     0.9900     3.5360 ca         1 PUX       0.478900
     12 N5          -3.1690     1.8100     3.7540 nv         1 PUX      -1.054900
     13 N1          -1.3870     1.8290     1.2540 nc         1 PUX      -0.548100
     14 C10         -0.3990     1.4020     0.5180 cd         1 PUX       0.401800
     15 C9          -0.0270     1.9620    -0.8100 c3         1 PUX      -0.042400
     16 C1          -0.2460     1.0050    -1.9620 ca         1 PUX      -0.092300
     17 C6           0.7130     0.9380    -2.9850 ca         1 PUX      -0.099000
     18 C5           0.4710     0.0720    -4.0220 ca         1 PUX       0.053100
     19 C2          -1.3860     0.2150    -2.0220 ca         1 PUX      -0.098000
     20 O3           1.2260    -0.1580    -5.1220 os         1 PUX      -0.344100
     21 C3          -1.6190    -0.6670    -3.0840 ca         1 PUX      -0.093000
     22 C4          -0.6670    -0.7160    -4.0720 ca         1 PUX       0.054100
     23 O1          -0.6520    -1.4590    -5.2060 os         1 PUX      -0.341100
     24 C7           0.6290    -1.2620    -5.7910 c5         1 PUX       0.373600
     25 F           -0.5910    -1.6140     5.1880 f          1 PUX      -0.206200
     26 H181         6.1310    -0.4240     0.6580 hc         1 PUX       0.035033
     27 H182         5.3800     1.1510     0.8990 hc         1 PUX       0.035033
     28 H183         5.3330    -0.0520     2.1830 hc         1 PUX       0.035033
     29 H171         3.9520    -0.3440    -0.5400 hc         1 PUX       0.039700
     30 H172         3.8950    -1.5290     0.7460 hc         1 PUX       0.039700
     31 H161         2.7570     0.1530     2.2290 hc         1 PUX       0.054200
     32 H162         2.7940     1.3170     0.9160 hc         1 PUX       0.054200
     33 H151         1.4360    -0.2810    -0.4970 h1         1 PUX       0.071200
     34 H152         1.3620    -1.3880     0.8550 h1         1 PUX       0.071200
     35 H5N1        -3.6770     1.7770     4.6210 hn         1 PUX       0.511500
     36 H5N2        -3.4060     2.5270     3.0900 hn         1 PUX       0.511500
     37 H9C1        -0.6270     2.8640    -0.9540 hc         1 PUX       0.076200
     38 H9C2         1.0160     2.2900    -0.7980 hc         1 PUX       0.076200
     39 H6           1.6060     1.5490    -2.9590 ha         1 PUX       0.133000
     40 H2          -2.1200     0.2750    -1.2280 ha         1 PUX       0.132000
     41 H3          -2.5110    -1.2780    -3.1190 ha         1 PUX       0.138000
     42 H7C1         1.2440    -2.1580    -5.6510 h2         1 PUX       0.065700
     43 H7C2         0.5200    -1.0360    -6.8510 h2         1 PUX       0.065700
@<TRIPOS>BOND
     1     1     2 1   
     2     1    26 1   
     3     1    27 1   
     4     1    28 1   
     5     2     3 1   
     6     2    29 1   
     7     2    30 1   
     8     3     4 1   
     9     3    31 1   
    10     3    32 1   
    11     4     5 1   
    12     4    33 1   
    13     4    34 1   
    14     5     6 1   
    15     5    14 1   
    16     6     7 ar  
    17     6    10 ar  
    18     7     8 ar  
    19     8     9 ar  
    20     8    25 1   
    21     9    11 ar  
    22    10    11 ar  
    23    10    13 1   
    24    11    12 1   
    25    12    35 1   
    26    12    36 1   
    27    13    14 2   
    28    14    15 1   
    29    15    16 1   
    30    15    37 1   
    31    15    38 1   
    32    16    17 ar  
    33    16    19 ar  
    34    17    18 ar  
    35    17    39 1   
    36    18    20 1   
    37    18    22 ar  
    38    19    21 ar  
    39    19    40 1   
    40    20    24 1   
    41    21    22 ar  
    42    21    41 1   
    43    22    23 1   
    44    23    24 1   
    45    24    42 1   
    46    24    43 1   
@<TRIPOS>SUBSTRUCTURE
     1 PUX         1 TEMP              0 ****  ****    0 ROOT
