@<TRIPOS>MOLECULE
PUZ
   47    49     1     0     0
SMALL
bcc


@<TRIPOS>ATOM
      1 C19          5.6370    -0.1350    -0.7390 c1         1 PUZ      -0.153500
      2 C18          4.5260    -0.5340    -0.5070 c1         1 PUZ      -0.146100
      3 C17          3.1700    -0.9950    -0.2460 c3         1 PUZ       0.006700
      4 C16          2.1150    -0.0600    -0.8410 c3         1 PUZ      -0.092400
      5 C15          0.7180    -0.6040    -0.5810 c3         1 PUZ       0.045300
      6 N2          -0.3270     0.3360    -0.9430 na         1 PUZ      -0.235000
      7 C12         -1.0830     0.2460    -2.0690 ca         1 PUZ       0.468800
      8 N4          -1.0490    -0.7040    -3.0090 nb         1 PUZ      -0.776000
      9 C11         -1.9140     1.3510    -2.0530 ca         1 PUZ      -0.241200
     10 C13         -2.8030     1.4800    -3.1350 ca         1 PUZ       0.804200
     11 N5          -3.6640     2.4880    -3.2520 nv         1 PUZ      -0.947500
     12 N3          -2.7760     0.5340    -4.0860 nb         1 PUZ      -0.857000
     13 C14         -1.9230    -0.4530    -3.9430 ca         1 PUZ       0.931200
     14 F1          -1.9600    -1.3490    -4.9280 f          1 PUZ      -0.208200
     15 N1          -1.6760     2.1110    -0.9420 nc         1 PUZ      -0.551100
     16 C10         -0.7290     1.4880    -0.3000 cd         1 PUZ       0.425800
     17 C9          -0.1130     2.0100     0.9570 c3         1 PUZ      -0.032400
     18 C1           0.1160     0.9930     2.0420 ca         1 PUZ      -0.093300
     19 C2          -0.9510     0.2280     2.5360 ca         1 PUZ       0.114100
     20 O2          -2.1600     0.4860     1.9950 os         1 PUZ      -0.307900
     21 C7          -3.2570    -0.3100     2.3860 c3         1 PUZ       0.123700
     22 C3          -0.7070    -0.7300     3.5080 ca         1 PUZ      -0.180000
     23 C4           0.5810    -0.9330     4.0040 ca         1 PUZ      -0.173000
     24 C5           1.6370    -0.1710     3.5300 ca         1 PUZ       0.102100
     25 C6           1.3860     0.7920     2.5500 ca         1 PUZ      -0.127000
     26 O5           2.9210    -0.2890     3.9340 os         1 PUZ      -0.316900
     27 C8           3.2280    -1.2770     4.8950 c3         1 PUZ       0.124700
     28 H19          6.6300     0.2050    -0.9240 ha         1 PUZ       0.167500
     29 H171         3.0230    -1.0770     0.8360 hc         1 PUZ       0.060700
     30 H172         3.0500    -2.0050    -0.6480 hc         1 PUZ       0.060700
     31 H161         2.2720     0.0470    -1.9160 hc         1 PUZ       0.057700
     32 H162         2.2330     0.9340    -0.4060 hc         1 PUZ       0.057700
     33 H151         0.5960    -0.8910     0.4620 h1         1 PUZ       0.074700
     34 H152         0.5520    -1.5020    -1.1760 h1         1 PUZ       0.074700
     35 H5N1        -4.2520     2.5660    -4.0640 hn         1 PUZ       0.455300
     36 H5N2        -3.6900     3.2270    -2.5720 hn         1 PUZ       0.455300
     37 H9C1        -0.7670     2.8120     1.3070 hc         1 PUZ       0.076700
     38 H9C2         0.8420     2.4840     0.7140 hc         1 PUZ       0.076700
     39 H7C1        -4.1120     0.0370     1.8120 h1         1 PUZ       0.041367
     40 H7C2        -3.0930    -1.3690     2.1660 h1         1 PUZ       0.041367
     41 H7C3        -3.4820    -0.2040     3.4510 h1         1 PUZ       0.041367
     42 H3          -1.5050    -1.3430     3.9040 ha         1 PUZ       0.138000
     43 H4           0.7210    -1.6940     4.7590 ha         1 PUZ       0.137000
     44 H6           2.2110     1.3830     2.1670 ha         1 PUZ       0.150000
     45 H8C1         4.2990    -1.2170     5.0720 h1         1 PUZ       0.040700
     46 H8C2         2.7070    -1.1060     5.8410 h1         1 PUZ       0.040700
     47 H8C3         2.9870    -2.2830     4.5400 h1         1 PUZ       0.040700
@<TRIPOS>BOND
     1     1     2 3   
     2     1    28 1   
     3     2     3 1   
     4     3     4 1   
     5     3    29 1   
     6     3    30 1   
     7     4     5 1   
     8     4    31 1   
     9     4    32 1   
    10     5     6 1   
    11     5    33 1   
    12     5    34 1   
    13     6     7 1   
    14     6    16 1   
    15     7     8 ar  
    16     7     9 ar  
    17     8    13 ar  
    18     9    10 ar  
    19     9    15 1   
    20    10    11 1   
    21    10    12 ar  
    22    11    35 1   
    23    11    36 1   
    24    12    13 ar  
    25    13    14 1   
    26    15    16 2   
    27    16    17 1   
    28    17    18 1   
    29    17    37 1   
    30    17    38 1   
    31    18    19 ar  
    32    18    25 ar  
    33    19    20 1   
    34    19    22 ar  
    35    20    21 1   
    36    21    39 1   
    37    21    40 1   
    38    21    41 1   
    39    22    23 ar  
    40    22    42 1   
    41    23    24 ar  
    42    23    43 1   
    43    24    25 ar  
    44    24    26 1   
    45    25    44 1   
    46    26    27 1   
    47    27    45 1   
    48    27    46 1   
    49    27    47 1   
@<TRIPOS>SUBSTRUCTURE
     1 PUZ         1 TEMP              0 ****  ****    0 ROOT
