@<TRIPOS>MOLECULE
PUZ
   47    49     1     0     0
SMALL
No Charge or Current Charge


@<TRIPOS>ATOM
      1 C19          5.6600    -0.1670    -0.5680 c1         1 PUZ      -0.241000
      2 C18          4.5440    -0.6150    -0.4350 c1         1 PUZ      -0.146100
      3 C17          3.1780    -1.1260    -0.2590 c3         1 PUZ       0.006700
      4 C16          2.1100    -0.1500    -0.7980 c3         1 PUZ      -0.092400
      5 C15          0.6720    -0.6700    -0.5920 c3         1 PUZ       0.074600
      6 N2          -0.3570     0.3150    -0.9780 na         1 PUZ      -0.264300
      7 C12         -1.1030     0.2420    -2.1250 ca         1 PUZ       0.140500
      8 N4          -1.1190    -0.6660    -3.1210 nb         1 PUZ      -0.250000
      9 C11         -1.9200     1.3470    -2.1350 ca         1 PUZ      -0.110600
     10 C13         -2.7960     1.5120    -3.2290 ca         1 PUZ       0.475900
     11 N5          -3.6390     2.5720    -3.3330 nv         1 PUZ      -1.057900
     12 N3          -2.8380     0.6330    -4.2360 nb         1 PUZ      -0.331000
     13 C14         -1.9910    -0.4130    -4.1210 ca         1 PUZ       0.405200
     14 F1          -2.0190    -1.3120    -5.1280 f          1 PUZ      -0.208200
     15 N1          -1.7370     2.1630    -1.0200 nc         1 PUZ      -0.551100
     16 C10         -0.7890     1.4950    -0.3350 cd         1 PUZ       0.425800
     17 C9          -0.2290     2.0510     0.9580 c3         1 PUZ      -0.032400
     18 C1           0.0570     1.0230     2.0550 ca         1 PUZ      -0.093300
     19 C2          -0.9780     0.2170     2.5800 ca         1 PUZ       0.114100
     20 O2          -2.2620     0.3990     2.1010 os         1 PUZ      -0.331100
     21 C7          -3.3730    -0.4020     2.5410 c3         1 PUZ       0.146900
     22 C3          -0.6780    -0.7510     3.5640 ca         1 PUZ      -0.162000
     23 C4           0.6420    -0.9150     4.0210 ca         1 PUZ      -0.155000
     24 C5           1.6750    -0.1070     3.5030 ca         1 PUZ       0.102100
     25 C6           1.3750     0.8580     2.5300 ca         1 PUZ      -0.109000
     26 O5           2.9880    -0.2260     3.9090 os         1 PUZ      -0.340100
     27 C8           3.4070    -1.2010     4.8800 c3         1 PUZ       0.147900
     28 H19          6.6450     0.2420    -0.6860 ha         1 PUZ       0.255000
     29 H171         3.0040    -1.3110     0.8090 hc         1 PUZ       0.060700
     30 H172         3.0900    -2.0920    -0.7720 hc         1 PUZ       0.060700
     31 H161         2.2760     0.0250    -1.8680 hc         1 PUZ       0.057700
     32 H162         2.2230     0.8180    -0.2970 hc         1 PUZ       0.057700
     33 H151         0.5240    -0.9490     0.4580 h1         1 PUZ       0.074700
     34 H152         0.5350    -1.5840    -1.1840 h1         1 PUZ       0.074700
     35 H5N1        -4.0080     2.7950    -4.2540 hn         1 PUZ       0.510500
     36 H5N2        -3.4710     3.3540    -2.7060 hn         1 PUZ       0.510500
     37 H9C1        -0.9270     2.7970     1.3560 hc         1 PUZ       0.076700
     38 H9C2         0.6800     2.6140     0.7200 hc         1 PUZ       0.076700
     39 H7C1        -4.2910    -0.0930     2.0260 h1         1 PUZ       0.041367
     40 H7C2        -3.1990    -1.4630     2.3200 h1         1 PUZ       0.041367
     41 H7C3        -3.5330    -0.2870     3.6210 h1         1 PUZ       0.041367
     42 H3          -1.4520    -1.3870     3.9830 ha         1 PUZ       0.120000
     43 H4           0.8410    -1.6710     4.7750 ha         1 PUZ       0.119000
     44 H6           2.1800     1.4730     2.1360 ha         1 PUZ       0.132000
     45 H8C1         4.4880    -1.1260     5.0520 h1         1 PUZ       0.040700
     46 H8C2         2.8980    -1.0390     5.8390 h1         1 PUZ       0.040700
     47 H8C3         3.1870    -2.2180     4.5310 h1         1 PUZ       0.040700
@<TRIPOS>BOND
     1     1     2 3   
     2     1    28 1   
     3     2     3 1   
     4     3     4 1   
     5     3    29 1   
     6     3    30 1   
     7     4     5 1   
     8     4    31 1   
     9     4    32 1   
    10     5     6 1   
    11     5    33 1   
    12     5    34 1   
    13     6     7 1   
    14     6    16 1   
    15     7     8 ar  
    16     7     9 ar  
    17     8    13 ar  
    18     9    10 ar  
    19     9    15 1   
    20    10    11 1   
    21    10    12 ar  
    22    11    35 1   
    23    11    36 1   
    24    12    13 ar  
    25    13    14 1   
    26    15    16 2   
    27    16    17 1   
    28    17    18 1   
    29    17    37 1   
    30    17    38 1   
    31    18    19 ar  
    32    18    25 ar  
    33    19    20 1   
    34    19    22 ar  
    35    20    21 1   
    36    21    39 1   
    37    21    40 1   
    38    21    41 1   
    39    22    23 ar  
    40    22    42 1   
    41    23    24 ar  
    42    23    43 1   
    43    24    25 ar  
    44    24    26 1   
    45    25    44 1   
    46    26    27 1   
    47    27    45 1   
    48    27    46 1   
    49    27    47 1   
@<TRIPOS>SUBSTRUCTURE
     1 PUZ         1 TEMP              0 ****  ****    0 ROOT
