@<TRIPOS>MOLECULE
PV0
   35    37     1     0     0
SMALL
abcg2


@<TRIPOS>ATOM
      1 C12          2.1420    -0.0650    -0.4630 ca         1 PV0      -0.171300
      2 C13          2.1470     0.3550     0.8520 ca         1 PV0      -0.021300
      3 C02         -2.7200    -0.4320    -1.0560 ca         1 PV0       0.300100
      4 C03         -3.4700    -1.5520    -0.7070 ca         1 PV0      -0.288000
      5 C04         -3.7520    -1.8340     0.6220 ca         1 PV0       0.235100
      6 O05         -4.4730    -2.8980     0.9880 oh         1 PV0      -0.521100
      7 C06         -3.2940    -0.9860     1.6380 ca         1 PV0      -0.204000
      8 C07         -2.5520     0.1190     1.3000 ca         1 PV0       0.049000
      9 C08         -2.2390     0.4050    -0.0330 ca         1 PV0      -0.466500
     10 S09         -1.2140     1.7900    -0.3660 sy         1 PV0       1.187600
     11 N10          0.3470     1.3320    -0.2050 n3         1 PV0      -0.749500
     12 C11          0.9220     0.4020    -1.1890 c5         1 PV0       0.277100
     13 C14          0.9110     1.1510     1.1420 c5         1 PV0       0.259100
     14 C15          3.1680     0.0390     1.7290 ca         1 PV0      -0.164000
     15 C16          4.2200    -0.7330     1.2390 ca         1 PV0       0.189100
     16 C17          4.2350    -1.1660    -0.0870 ca         1 PV0      -0.304000
     17 C18          3.1910    -0.8350    -0.9460 ca         1 PV0       0.204100
     18 O19          3.1460    -1.2240    -2.2310 oh         1 PV0      -0.526100
     19 O20          5.2160    -1.0400     2.0920 oh         1 PV0      -0.528100
     20 O21         -1.3890     2.1140    -1.7860 o          1 PV0      -0.544500
     21 O22         -1.4530     2.8080     0.6400 o          1 PV0      -0.544500
     22 H1          -2.1070     0.6460    -2.5010 ho         1 PV0       0.519000
     23 H2          -3.8410    -2.1930    -1.4990 ha         1 PV0       0.133000
     24 H3          -4.7450    -3.4130     0.2190 ho         1 PV0       0.476000
     25 H4          -3.5310    -1.1960     2.6720 ha         1 PV0       0.137000
     26 H5          -2.2180     0.7820     2.0870 ha         1 PV0       0.130000
     27 H6           1.1440     0.9210    -2.1230 h1         1 PV0       0.070200
     28 H7           0.2550    -0.4380    -1.4190 h1         1 PV0       0.070200
     29 H8           0.2460     0.5900     1.8090 h1         1 PV0       0.071200
     30 H9           1.1250     2.1130     1.6060 h1         1 PV0       0.071200
     31 H10          3.1620     0.3750     2.7580 ha         1 PV0       0.139000
     32 H11          5.0680    -1.7600    -0.4530 ha         1 PV0       0.116000
     33 H12          3.9170    -1.7580    -2.4540 ho         1 PV0       0.470000
     34 H13          5.8860    -1.5750     1.6530 ho         1 PV0       0.468000
     35 O01         -2.5100    -0.2310    -2.3580 oh         1 PV0      -0.541100
@<TRIPOS>BOND
     1     1     2 ar  
     2     1    12 1   
     3     1    17 ar  
     4     2    13 1   
     5     2    14 ar  
     6     3     4 ar  
     7     3     9 ar  
     8     3    35 1   
     9     4     5 ar  
    10     4    23 1   
    11     5     6 1   
    12     5     7 ar  
    13     6    24 1   
    14     7     8 ar  
    15     7    25 1   
    16     8     9 ar  
    17     8    26 1   
    18     9    10 1   
    19    10    11 1   
    20    10    20 2   
    21    10    21 2   
    22    11    12 1   
    23    11    13 1   
    24    12    27 1   
    25    12    28 1   
    26    13    29 1   
    27    13    30 1   
    28    14    15 ar  
    29    14    31 1   
    30    15    16 ar  
    31    15    19 1   
    32    16    17 ar  
    33    16    32 1   
    34    17    18 1   
    35    18    33 1   
    36    19    34 1   
    37    22    35 1   
@<TRIPOS>SUBSTRUCTURE
     1 PV0         1 TEMP              0 ****  ****    0 ROOT
