@<TRIPOS>MOLECULE
PV0
   35    37     1     0     0
SMALL
No Charge or Current Charge


@<TRIPOS>ATOM
      1 C12          2.0000    -0.4360     0.3830 ca         1 PV0      -0.171300
      2 C13          2.5000     0.8290     0.5940 ca         1 PV0      -0.021300
      3 C02         -2.7820     0.0970    -1.1990 ca         1 PV0       0.300100
      4 C03         -3.5430    -1.0070    -1.5960 ca         1 PV0      -0.288000
      5 C04         -3.9240    -1.9700    -0.6570 ca         1 PV0       0.235100
      6 O05         -4.6650    -3.0430    -1.0430 oh         1 PV0      -0.521100
      7 C06         -3.5480    -1.8330     0.6820 ca         1 PV0      -0.204000
      8 C07         -2.7830    -0.7300     1.0890 ca         1 PV0       0.049000
      9 C08         -2.3920     0.2400     0.1430 ca         1 PV0      -0.466500
     10 S09         -1.3850     1.6160     0.6870 sy         1 PV0       1.187600
     11 N10          0.1640     1.0390     0.3720 n3         1 PV0      -0.749500
     12 C11          0.4970    -0.4200     0.4300 c5         1 PV0       0.277100
     13 C14          1.3740     1.8080     0.8020 c5         1 PV0       0.259100
     14 C15          3.8840     1.0660     0.5980 ca         1 PV0      -0.164000
     15 C16          4.7530    -0.0180     0.3820 ca         1 PV0       0.189100
     16 C17          4.2420    -1.3130     0.1680 ca         1 PV0      -0.304000
     17 C18          2.8530    -1.5260     0.1690 ca         1 PV0       0.204100
     18 O19          2.3490    -2.7730    -0.0340 oh         1 PV0      -0.526100
     19 O20          6.0970     0.1850     0.3820 oh         1 PV0      -0.528100
     20 O21         -1.6050     2.7140    -0.2610 o          1 PV0      -0.544500
     21 O22         -1.5040     1.7730     2.1390 o          1 PV0      -0.544500
     22 H1          -2.0640     1.7860    -1.6630 ho         1 PV0       0.519000
     23 H2          -3.8350    -1.1050    -2.6370 ha         1 PV0       0.133000
     24 H3          -4.8300    -2.9650    -2.0060 ho         1 PV0       0.476000
     25 H4          -3.8470    -2.5830     1.4090 ha         1 PV0       0.137000
     26 H5          -2.4920    -0.6430     2.1360 ha         1 PV0       0.130000
     27 H6           0.0590    -0.9780    -0.4100 h1         1 PV0       0.070200
     28 H7           0.1470    -0.8800     1.3650 h1         1 PV0       0.070200
     29 H8           1.3190     2.0950     1.8610 h1         1 PV0       0.071200
     30 H9           1.5140     2.7200     0.2060 h1         1 PV0       0.071200
     31 H10          4.2770     2.0650     0.7650 ha         1 PV0       0.139000
     32 H11          4.9200    -2.1470     0.0030 ha         1 PV0       0.116000
     33 H12          3.1030    -3.3850    -0.1630 ho         1 PV0       0.470000
     34 H13          6.5330    -0.6770     0.2170 ho         1 PV0       0.468000
     35 O01         -2.4460     1.0130    -2.1430 oh         1 PV0      -0.541100
@<TRIPOS>BOND
     1     1     2 ar  
     2     1    12 1   
     3     1    17 ar  
     4     2    13 1   
     5     2    14 ar  
     6     3     4 ar  
     7     3     9 ar  
     8     3    35 1   
     9     4     5 ar  
    10     4    23 1   
    11     5     6 1   
    12     5     7 ar  
    13     6    24 1   
    14     7     8 ar  
    15     7    25 1   
    16     8     9 ar  
    17     8    26 1   
    18     9    10 1   
    19    10    11 1   
    20    10    20 2   
    21    10    21 2   
    22    11    12 1   
    23    11    13 1   
    24    12    27 1   
    25    12    28 1   
    26    13    29 1   
    27    13    30 1   
    28    14    15 ar  
    29    14    31 1   
    30    15    16 ar  
    31    15    19 1   
    32    16    17 ar  
    33    16    32 1   
    34    17    18 1   
    35    18    33 1   
    36    19    34 1   
    37    22    35 1   
@<TRIPOS>SUBSTRUCTURE
     1 PV0         1 TEMP              0 ****  ****    0 ROOT
