@<TRIPOS>MOLECULE
PV1
   32    34     1     0     0
SMALL
No Charge or Current Charge


@<TRIPOS>ATOM
      1 C6           5.9280     1.1190     0.3080 ca         1 PV1      -0.104500
      2 C5           5.3400     0.0460    -0.3900 ca         1 PV1      -0.086500
      3 O1           1.1010    -3.0250    -0.4480 o          1 PV1      -0.657100
      4 C4           3.9440    -0.1020    -0.3530 ca         1 PV1      -0.105300
      5 C3           3.1550     0.7790     0.3530 ca         1 PV1      -0.105300
      6 C2           3.7210     1.8550     1.0560 ca         1 PV1      -0.086500
      7 C1           5.1200     2.0220     1.0300 ca         1 PV1      -0.104500
      8 N1           1.7340    -0.8230    -0.5790 n          1 PV1      -0.388800
      9 C7           1.6950     0.4330     0.2500 c5         1 PV1       0.148800
     10 C8           3.1280    -1.1770    -1.0190 c5         1 PV1       0.148800
     11 C9           0.7870    -1.8420    -0.3640 c          1 PV1       0.636700
     12 C14         -2.5490     0.0520    -0.3000 ca         1 PV1      -0.182900
     13 C13         -3.3470    -0.8340     0.4400 ca         1 PV1       0.240100
     14 C12         -2.8150    -2.0460     0.8840 ca         1 PV1      -0.225000
     15 C11         -1.4830    -2.3710     0.6080 ca         1 PV1       0.263100
     16 C15         -1.2090    -0.2700    -0.5740 ca         1 PV1       0.030000
     17 C10         -0.6510    -1.4760    -0.0940 ca         1 PV1      -0.300600
     18 H1           7.0080     1.2500     0.2910 ha         1 PV1       0.117000
     19 H2           5.9570    -0.6550    -0.9480 ha         1 PV1       0.120000
     20 H3          -4.8270     0.3450     0.3100 ho         1 PV1       0.485000
     21 H4           3.0920     2.5480     1.6100 ha         1 PV1       0.120000
     22 H5          -0.1250    -3.6700     0.5680 ho         1 PV1       0.524000
     23 H6           5.5770     2.8500     1.5690 ha         1 PV1       0.117000
     24 H7           1.2540     0.2600     1.2410 h1         1 PV1       0.069200
     25 H8           1.1480     1.2440    -0.2480 h1         1 PV1       0.069200
     26 H9           3.2270    -1.1350    -2.1120 h1         1 PV1       0.069200
     27 H10          3.4420    -2.1710    -0.6740 h1         1 PV1       0.069200
     28 H11         -3.4390    -2.7410     1.4380 ha         1 PV1       0.152000
     29 H12         -0.6240     0.4120    -1.1870 ha         1 PV1       0.126000
     30 O3          -4.6460    -0.5310     0.7100 oh         1 PV1      -0.518100
     31 O2          -1.0010    -3.5710     1.0260 oh         1 PV1      -0.541100
     32 Br1         -3.2640     1.7060    -0.9610 br         1 PV1      -0.099100
@<TRIPOS>BOND
     1     1     2 ar  
     2     1     7 ar  
     3     1    18 1   
     4     2     4 ar  
     5     2    19 1   
     6     3    11 2   
     7     4     5 ar  
     8     4    10 1   
     9     5     6 ar  
    10     5     9 1   
    11     6     7 ar  
    12     6    21 1   
    13     7    23 1   
    14     8     9 1   
    15     8    10 1   
    16     8    11 1   
    17     9    24 1   
    18     9    25 1   
    19    10    26 1   
    20    10    27 1   
    21    11    17 1   
    22    12    13 ar  
    23    12    16 ar  
    24    12    32 1   
    25    13    14 ar  
    26    13    30 1   
    27    14    15 ar  
    28    14    28 1   
    29    15    17 ar  
    30    15    31 1   
    31    16    17 ar  
    32    16    29 1   
    33    20    30 1   
    34    22    31 1   
@<TRIPOS>SUBSTRUCTURE
     1 PV1         1 TEMP              0 ****  ****    0 ROOT
