@<TRIPOS>MOLECULE
PV1
   32    34     1     0     0
SMALL
abcg2


@<TRIPOS>ATOM
      1 C6           5.8850     1.0740     0.4260 ca         1 PV1      -0.104500
      2 C5           5.3340    -0.0730    -0.1340 ca         1 PV1      -0.086500
      3 O1           1.0400    -2.9620    -0.7210 o          1 PV1      -0.657100
      4 C4           3.9550    -0.1730    -0.2190 ca         1 PV1      -0.105300
      5 C3           3.1420     0.8480     0.2410 ca         1 PV1      -0.105300
      6 C2           3.6830     1.9940     0.7990 ca         1 PV1      -0.086500
      7 C1           5.0650     2.0990     0.8910 ca         1 PV1      -0.104500
      8 N1           1.7620    -0.8620    -0.4810 n          1 PV1      -0.388800
      9 C7           1.7020     0.5190     0.0030 c5         1 PV1       0.148800
     10 C8           3.1340    -1.2980    -0.7610 c5         1 PV1       0.148800
     11 C9           0.7810    -1.7710    -0.4770 c          1 PV1       0.636700
     12 C14         -2.4950     0.1210    -0.0710 ca         1 PV1      -0.182900
     13 C13         -3.2980    -0.8520     0.5400 ca         1 PV1       0.240100
     14 C12         -2.7560    -2.1110     0.7630 ca         1 PV1      -0.225000
     15 C11         -1.4490    -2.4110     0.4030 ca         1 PV1       0.263100
     16 C15         -1.1850    -0.1600    -0.3980 ca         1 PV1       0.030000
     17 C10         -0.6160    -1.4050    -0.1430 ca         1 PV1      -0.300600
     18 H1           6.9600     1.1700     0.5040 ha         1 PV1       0.117000
     19 H2           5.9730    -0.8710    -0.4920 ha         1 PV1       0.120000
     20 H3          -4.8760     0.2310     0.7200 ho         1 PV1       0.485000
     21 H4           3.0470     2.7940     1.1590 ha         1 PV1       0.120000
     22 H5          -0.1570    -3.7360     0.1350 ho         1 PV1       0.524000
     23 H6           5.5080     2.9840     1.3270 ha         1 PV1       0.117000
     24 H7           1.0900     0.5950     0.9040 h1         1 PV1       0.069200
     25 H8           1.2840     1.1960    -0.7470 h1         1 PV1       0.069200
     26 H9           3.2880    -1.4480    -1.8340 h1         1 PV1       0.069200
     27 H10          3.3530    -2.2440    -0.2650 h1         1 PV1       0.069200
     28 H11         -3.3760    -2.8810     1.2040 ha         1 PV1       0.152000
     29 H12         -0.6080     0.6070    -0.8930 ha         1 PV1       0.126000
     30 O3          -4.5640    -0.6630     0.9110 oh         1 PV1      -0.518100
     31 O2          -1.0240    -3.6560     0.6010 oh         1 PV1      -0.541100
     32 BR1         -3.2060     1.8280    -0.4570 br         1 PV1      -0.099100
@<TRIPOS>BOND
     1     1     2 ar  
     2     1     7 ar  
     3     1    18 1   
     4     2     4 ar  
     5     2    19 1   
     6     3    11 2   
     7     4     5 ar  
     8     4    10 1   
     9     5     6 ar  
    10     5     9 1   
    11     6     7 ar  
    12     6    21 1   
    13     7    23 1   
    14     8     9 1   
    15     8    10 1   
    16     8    11 1   
    17     9    24 1   
    18     9    25 1   
    19    10    26 1   
    20    10    27 1   
    21    11    17 1   
    22    12    13 ar  
    23    12    16 ar  
    24    12    32 1   
    25    13    14 ar  
    26    13    30 1   
    27    14    15 ar  
    28    14    28 1   
    29    15    17 ar  
    30    15    31 1   
    31    16    17 ar  
    32    16    29 1   
    33    20    30 1   
    34    22    31 1   
@<TRIPOS>SUBSTRUCTURE
     1 PV1         1 TEMP              0 ****  ****    0 ROOT
