@<TRIPOS>MOLECULE
PV2
   33    35     1     0     0
SMALL
No Charge or Current Charge


@<TRIPOS>ATOM
      1 O2          -4.5840    -1.5670     2.2140 oh         1 PV2      -0.520100
      2 C2          -1.7950     0.3750    -0.2000 ca         1 PV2      -0.377500
      3 C1          -2.2030     0.9490     1.0230 ca         1 PV2       0.058000
      4 C4          -3.2680    -1.5170     0.2250 ca         1 PV2      -0.337000
      5 C5          -3.6750    -0.9340     1.4280 ca         1 PV2       0.235100
      6 C6          -3.1440     0.2930     1.8300 ca         1 PV2      -0.206000
      7 C3          -2.3290    -0.8680    -0.5890 ca         1 PV2       0.280100
      8 O3          -0.5770     0.8340    -2.5800 o          1 PV2      -0.547500
      9 C11          3.2530    -1.8310     0.7570 ca         1 PV2      -0.093500
     10 C12          4.6540    -1.7150     0.8530 ca         1 PV2      -0.108000
     11 C13          5.3130    -0.5850     0.3190 ca         1 PV2      -0.108000
     12 C14          4.5740     0.4350    -0.3130 ca         1 PV2      -0.093500
     13 O4          -0.6790     2.6920    -0.8130 o          1 PV2      -0.547500
     14 O1          -1.9510    -1.4900    -1.7320 oh         1 PV2      -0.522100
     15 N            0.8670     0.7380    -0.4990 n3         1 PV2      -0.813500
     16 C10          2.1770     1.2390    -1.0180 c5         1 PV2       0.290600
     17 C9           3.1790     0.2990    -0.3970 ca         1 PV2      -0.094300
     18 C8           2.5370    -0.8030     0.1230 ca         1 PV2      -0.094300
     19 C7           1.0510    -0.6950    -0.1060 c5         1 PV2       0.290600
     20 H1          -4.8350    -2.4030     1.7670 ho         1 PV2       0.473000
     21 H2          -1.7940     1.9020     1.3570 ha         1 PV2       0.148000
     22 H3          -3.6790    -2.4770    -0.0760 ha         1 PV2       0.116000
     23 H4          -3.4580     0.7380     2.7700 ha         1 PV2       0.139000
     24 H6           5.2310    -2.4990     1.3390 ha         1 PV2       0.114000
     25 H7           6.3950    -0.5020     0.3970 ha         1 PV2       0.114000
     26 H8           5.0740     1.3080    -0.7270 ha         1 PV2       0.117500
     27 H9          -2.4730    -2.3140    -1.8080 ho         1 PV2       0.481000
     28 H10          2.2330     1.1730    -2.1140 h1         1 PV2       0.063950
     29 H11          2.3630     2.2820    -0.7280 h1         1 PV2       0.063950
     30 H12          0.4820    -0.9530     0.7980 h1         1 PV2       0.063950
     31 H13          0.7480    -1.3790    -0.9110 h1         1 PV2       0.063950
     32 S           -0.5800     1.2750    -1.1800 sy         1 PV2       1.232600
     33 H5           2.7380    -2.6990     1.1640 ha         1 PV2       0.117500
@<TRIPOS>BOND
     1     1     5 1   
     2     1    20 1   
     3     2     3 ar  
     4     2     7 ar  
     5     2    32 1   
     6     3     6 ar  
     7     3    21 1   
     8     4     5 ar  
     9     4     7 ar  
    10     4    22 1   
    11     5     6 ar  
    12     6    23 1   
    13     7    14 1   
    14     8    32 2   
    15     9    10 ar  
    16     9    18 ar  
    17     9    33 1   
    18    10    11 ar  
    19    10    24 1   
    20    11    12 ar  
    21    11    25 1   
    22    12    17 ar  
    23    12    26 1   
    24    13    32 2   
    25    14    27 1   
    26    15    16 1   
    27    15    19 1   
    28    15    32 1   
    29    16    17 1   
    30    16    28 1   
    31    16    29 1   
    32    17    18 ar  
    33    18    19 1   
    34    19    30 1   
    35    19    31 1   
@<TRIPOS>SUBSTRUCTURE
     1 PV2         1 TEMP              0 ****  ****    0 ROOT
