@<TRIPOS>MOLECULE
PV2
   33    35     1     0     0
SMALL
bcc


@<TRIPOS>ATOM
      1 O2          -4.7510    -2.1840     0.9930 oh         1 PV2      -0.481100
      2 C2          -1.7490     0.4790     0.0710 ca         1 PV2      -0.377500
      3 C1          -2.5940     0.6880     1.1580 ca         1 PV2       0.040000
      4 C4          -2.9270    -1.5660    -0.4190 ca         1 PV2      -0.355000
      5 C5          -3.7660    -1.3400     0.6670 ca         1 PV2       0.235100
      6 C6          -3.5970    -0.2050     1.4640 ca         1 PV2      -0.224000
      7 C3          -1.9190    -0.6600    -0.7250 ca         1 PV2       0.280100
      8 O3          -0.6090     2.0960    -1.6870 o          1 PV2      -0.618300
      9 C11          3.5540    -1.0000     1.5190 ca         1 PV2      -0.111500
     10 C12          4.7190    -1.5010     0.9510 ca         1 PV2      -0.126000
     11 C13          4.9850    -1.3090    -0.4020 ca         1 PV2      -0.126000
     12 C14          4.0900    -0.6150    -1.2060 ca         1 PV2      -0.111500
     13 O4          -0.5630     2.6660     0.7490 o          1 PV2      -0.618300
     14 O1          -1.0900    -0.8430    -1.7560 oh         1 PV2      -0.483100
     15 N            0.9080     0.8560    -0.1830 n3         1 PV2      -0.813500
     16 C10          1.8320     0.6560    -1.3000 c5         1 PV2       0.290600
     17 C9           2.9290    -0.1180    -0.6350 ca         1 PV2      -0.094300
     18 C8           2.6650    -0.3090     0.7120 ca         1 PV2      -0.094300
     19 C7           1.3650     0.3260     1.0980 c5         1 PV2       0.290600
     20 H1          -4.7880    -2.9280     0.3790 ho         1 PV2       0.434000
     21 H2          -2.4650     1.5630     1.7790 ha         1 PV2       0.166000
     22 H3          -3.0550    -2.4500    -1.0360 ha         1 PV2       0.134000
     23 H4          -4.2480    -0.0340     2.3110 ha         1 PV2       0.157000
     24 H6           5.4250    -2.0450     1.5650 ha         1 PV2       0.132000
     25 H7           5.8960    -1.7060    -0.8310 ha         1 PV2       0.132000
     26 H8           4.2980    -0.4670    -2.2590 ha         1 PV2       0.135500
     27 H9          -1.2820    -1.6730    -2.2070 ho         1 PV2       0.442000
     28 H10          1.3730     0.0960    -2.1160 h1         1 PV2       0.063950
     29 H11          2.1970     1.6040    -1.7040 h1         1 PV2       0.063950
     30 H12          1.5030     1.1150     1.8440 h1         1 PV2       0.063950
     31 H13          0.6590    -0.4010     1.5110 h1         1 PV2       0.063950
     32 S           -0.4970     1.6600    -0.3040 sy         1 PV2       1.374200
     33 H5           3.3490    -1.1500     2.5720 ha         1 PV2       0.135500
@<TRIPOS>BOND
     1     1     5 1   
     2     1    20 1   
     3     2     3 ar  
     4     2     7 ar  
     5     2    32 1   
     6     3     6 ar  
     7     3    21 1   
     8     4     5 ar  
     9     4     7 ar  
    10     4    22 1   
    11     5     6 ar  
    12     6    23 1   
    13     7    14 1   
    14     8    32 2   
    15     9    10 ar  
    16     9    18 ar  
    17     9    33 1   
    18    10    11 ar  
    19    10    24 1   
    20    11    12 ar  
    21    11    25 1   
    22    12    17 ar  
    23    12    26 1   
    24    13    32 2   
    25    14    27 1   
    26    15    16 1   
    27    15    19 1   
    28    15    32 1   
    29    16    17 1   
    30    16    28 1   
    31    16    29 1   
    32    17    18 ar  
    33    18    19 1   
    34    19    30 1   
    35    19    31 1   
@<TRIPOS>SUBSTRUCTURE
     1 PV2         1 TEMP              0 ****  ****    0 ROOT
