@<TRIPOS>MOLECULE
PV3
   43    45     1     0     0
SMALL
No Charge or Current Charge


@<TRIPOS>ATOM
      1 C1          21.6070    14.4480    27.3060 ca         1 PV3       0.120000
      2 C2          22.9100    13.9260    27.2860 ca         1 PV3      -0.101000
      3 C3          23.1210    12.5850    26.9230 ca         1 PV3      -0.100000
      4 C4          22.0290    11.7690    26.5790 ca         1 PV3      -0.108000
      5 C5          20.7180    12.2890    26.5980 ca         1 PV3      -0.076300
      6 C6          19.5320    11.4120    26.2200 c3         1 PV3       0.208900
      7 C7          17.9750    11.2430    24.3070 ca         1 PV3       0.150100
      8 C8          17.3360    10.1050    24.8540 ca         1 PV3      -0.191000
      9 C9          16.3060     9.4620    24.1480 ca         1 PV3      -0.070000
     10 C10         15.9040     9.9500    22.8960 ca         1 PV3      -0.148000
     11 C11         16.5310    11.0810    22.3480 ca         1 PV3      -0.064000
     12 C12         17.5710    11.7320    23.0430 ca         1 PV3      -0.107300
     13 C13         18.2300    12.9570    22.4070 c3         1 PV3       0.219100
     14 C14         20.2840    11.9660    21.3280 c3         1 PV3       0.208100
     15 C15         20.1940    10.5510    21.8990 ca         1 PV3      -0.034300
     16 C16         20.9260    10.1810    23.0420 ca         1 PV3      -0.151000
     17 C17         20.8100     8.8730    23.5420 ca         1 PV3       0.320400
     18 C18         19.3220     8.2850    21.8690 ca         1 PV3       0.320400
     19 C19         19.3830     9.5690    21.3010 ca         1 PV3      -0.151000
     20 Cl1         21.3420    16.1270    27.7580 cl         1 PV3      -0.216000
     21 O1          18.9990    11.8880    24.9740 os         1 PV3      -0.359100
     22 N1          18.9660    12.6280    21.1620 n7         1 PV3      -0.872400
     23 N2          20.0250     7.9300    22.9700 nb         1 PV3      -0.672000
     24 C20         20.5140    13.6340    26.9640 ca         1 PV3      -0.083000
     25 H1          23.7530    14.5590    27.5520 ha         1 PV3       0.132000
     26 H2          24.1310    12.1780    26.9060 ha         1 PV3       0.121000
     27 H3          22.2030    10.7320    26.2980 ha         1 PV3       0.119000
     28 H4          18.7730    11.4620    27.0120 h1         1 PV3       0.051200
     29 H5          19.8630    10.3690    26.1260 h1         1 PV3       0.051200
     30 H6          17.6240     9.7050    25.8210 ha         1 PV3       0.117000
     31 H7          15.8200     8.5860    24.5710 ha         1 PV3       0.113000
     32 H8          15.1070     9.4530    22.3490 ha         1 PV3       0.117000
     33 H9          16.2160    11.4510    21.3750 ha         1 PV3       0.116000
     34 H10         18.8910    13.4640    23.1220 h1         1 PV3       0.041700
     35 H11         17.4280    13.6700    22.1730 h1         1 PV3       0.041700
     36 H12         20.7860    11.9000    20.3530 h1         1 PV3       0.043200
     37 H13         20.9320    12.5750    21.9740 h1         1 PV3       0.043200
     38 H14         21.5690    10.8950    23.5470 ha         1 PV3       0.131000
     39 H15         21.3640     8.5690    24.4290 h4         1 PV3       0.015100
     40 H16         18.6930     7.5140    21.4260 h4         1 PV3       0.015100
     41 H17         18.7940     9.7980    20.4180 ha         1 PV3       0.131000
     42 H18         19.1440    13.5180    20.6800 hn         1 PV3       0.416000
     43 H20         19.5100    14.0500    26.9780 ha         1 PV3       0.143000
@<TRIPOS>BOND
     1     1     2 ar  
     2     1    20 1   
     3     1    24 ar  
     4     2     3 ar  
     5     2    25 1   
     6     3     4 ar  
     7     3    26 1   
     8     4     5 ar  
     9     4    27 1   
    10     5     6 1   
    11     5    24 ar  
    12     6    21 1   
    13     6    28 1   
    14     6    29 1   
    15     7     8 ar  
    16     7    12 ar  
    17     7    21 1   
    18     8     9 ar  
    19     8    30 1   
    20     9    10 ar  
    21     9    31 1   
    22    10    11 ar  
    23    10    32 1   
    24    11    12 ar  
    25    11    33 1   
    26    12    13 1   
    27    13    22 1   
    28    13    34 1   
    29    13    35 1   
    30    14    15 1   
    31    14    22 1   
    32    14    36 1   
    33    14    37 1   
    34    15    16 ar  
    35    15    19 ar  
    36    16    17 ar  
    37    16    38 1   
    38    17    23 ar  
    39    17    39 1   
    40    18    19 ar  
    41    18    23 ar  
    42    18    40 1   
    43    19    41 1   
    44    22    42 1   
    45    24    43 1   
@<TRIPOS>SUBSTRUCTURE
     1 PV3         1 TEMP              0 ****  ****    0 ROOT
