@<TRIPOS>MOLECULE
PV3
   43    45     1     0     0
SMALL
abcg2


@<TRIPOS>ATOM
      1 C1          21.9720    13.9760    26.1020 ca         1 PV3       0.120000
      2 C2          22.9760    13.3970    26.8610 ca         1 PV3      -0.101000
      3 C3          22.7830    12.1020    27.3330 ca         1 PV3      -0.100000
      4 C4          21.6140    11.4120    27.0400 ca         1 PV3      -0.108000
      5 C5          20.6140    12.0090    26.2740 ca         1 PV3      -0.076300
      6 C6          19.3700    11.2260    25.9580 c3         1 PV3       0.208900
      7 C7          17.6780    11.1810    24.2620 ca         1 PV3       0.150100
      8 C8          17.1270    10.0020    24.7610 ca         1 PV3      -0.191000
      9 C9          16.1120     9.3620    24.0560 ca         1 PV3      -0.070000
     10 C10         15.6400     9.8950    22.8630 ca         1 PV3      -0.148000
     11 C11         16.1950    11.0760    22.3820 ca         1 PV3      -0.064000
     12 C12         17.2180    11.7330    23.0570 ca         1 PV3      -0.107300
     13 C13         17.8330    12.9810    22.4680 c3         1 PV3       0.219100
     14 C14         20.1830    12.4140    21.9340 c3         1 PV3       0.208100
     15 C15         20.4100    10.9840    22.3650 ca         1 PV3      -0.034300
     16 C16         21.4330    10.6810    23.2620 ca         1 PV3      -0.151000
     17 C17         21.6340     9.3650    23.6490 ca         1 PV3       0.320400
     18 C18         19.9240     8.6360    22.3310 ca         1 PV3       0.320400
     19 C19         19.6500     9.9220    21.8870 ca         1 PV3      -0.151000
     20 CL1         22.1970    15.6030    25.4810 cl         1 PV3      -0.216000
     21 O1          18.6880    11.8540    24.8820 os         1 PV3      -0.359100
     22 N1          18.8420    12.6960    21.4330 n7         1 PV3      -0.872400
     23 N2          20.8950     8.3420    23.2030 nb         1 PV3      -0.672000
     24 C20         20.7940    13.3060    25.8040 ca         1 PV3      -0.083000
     25 H1          23.8870    13.9380    27.0740 ha         1 PV3       0.132000
     26 H2          23.5570    11.6290    27.9230 ha         1 PV3       0.121000
     27 H3          21.4830    10.3960    27.3940 ha         1 PV3       0.119000
     28 H4          18.7170    11.1730    26.8360 h1         1 PV3       0.051200
     29 H5          19.6460    10.2050    25.6810 h1         1 PV3       0.051200
     30 H6          17.4810     9.5760    25.6870 ha         1 PV3       0.117000
     31 H7          15.6920     8.4450    24.4500 ha         1 PV3       0.113000
     32 H8          14.8480     9.4000    22.3150 ha         1 PV3       0.117000
     33 H9          15.8390    11.4980    21.4490 ha         1 PV3       0.116000
     34 H10         18.2490    13.6040    23.2670 h1         1 PV3       0.041700
     35 H11         17.0400    13.5520    21.9820 h1         1 PV3       0.041700
     36 H12         20.8880    12.6310    21.1260 h1         1 PV3       0.043200
     37 H13         20.4580    13.0690    22.7720 h1         1 PV3       0.043200
     38 H14         22.0520    11.4650    23.6780 ha         1 PV3       0.131000
     39 H15         22.4170     9.1220    24.3600 h4         1 PV3       0.015100
     40 H16         19.3280     7.8020    21.9750 h4         1 PV3       0.015100
     41 H17         18.8380    10.0990    21.1980 ha         1 PV3       0.131000
     42 H18         18.8960    13.4990    20.8190 hn         1 PV3       0.416000
     43 H20         20.0360    13.7800    25.2000 ha         1 PV3       0.143000
@<TRIPOS>BOND
     1     1     2 ar  
     2     1    20 1   
     3     1    24 ar  
     4     2     3 ar  
     5     2    25 1   
     6     3     4 ar  
     7     3    26 1   
     8     4     5 ar  
     9     4    27 1   
    10     5     6 1   
    11     5    24 ar  
    12     6    21 1   
    13     6    28 1   
    14     6    29 1   
    15     7     8 ar  
    16     7    12 ar  
    17     7    21 1   
    18     8     9 ar  
    19     8    30 1   
    20     9    10 ar  
    21     9    31 1   
    22    10    11 ar  
    23    10    32 1   
    24    11    12 ar  
    25    11    33 1   
    26    12    13 1   
    27    13    22 1   
    28    13    34 1   
    29    13    35 1   
    30    14    15 1   
    31    14    22 1   
    32    14    36 1   
    33    14    37 1   
    34    15    16 ar  
    35    15    19 ar  
    36    16    17 ar  
    37    16    38 1   
    38    17    23 ar  
    39    17    39 1   
    40    18    19 ar  
    41    18    23 ar  
    42    18    40 1   
    43    19    41 1   
    44    22    42 1   
    45    24    43 1   
@<TRIPOS>SUBSTRUCTURE
     1 PV3         1 TEMP              0 ****  ****    0 ROOT
