@<TRIPOS>MOLECULE
PV4
   33    34     1     0     0
SMALL
No Charge or Current Charge


@<TRIPOS>ATOM
      1 O17         -0.5440     2.8750    -0.0130 oh         1 PV4      -0.531100
      2 C6          -0.8670     1.5860    -0.3210 ca         1 PV4       0.144100
      3 C5           0.1460     0.6670    -0.6600 ca         1 PV4      -0.007900
      4 O7           1.4600     1.0900    -0.6950 os         1 PV4      -0.261200
      5 C8           2.5130     0.3010    -0.2860 ca         1 PV4       0.119100
      6 C13          3.7260     0.3680    -0.9910 ca         1 PV4      -0.156000
      7 C12          4.8210    -0.4160    -0.5860 ca         1 PV4      -0.080000
      8 C11          4.7030    -1.2610     0.5310 ca         1 PV4      -0.139000
      9 C10          3.4950    -1.3210     1.2470 ca         1 PV4      -0.080000
     10 C9           2.4000    -0.5370     0.8410 ca         1 PV4      -0.156000
     11 C4          -0.1980    -0.6590    -0.9910 ca         1 PV4      -0.075000
     12 C3          -1.5440    -1.0640    -0.9600 ca         1 PV4      -0.141000
     13 C2          -2.5570    -0.1490    -0.6100 ca         1 PV4      -0.037300
     14 C1          -2.2100     1.1780    -0.2910 ca         1 PV4      -0.144000
     15 C14         -4.0130    -0.5930    -0.5720 c3         1 PV4      -0.036100
     16 C15         -4.4220    -1.1230     0.8180 c3         1 PV4      -0.073400
     17 C16         -5.8930    -1.5800     0.8840 c3         1 PV4      -0.090100
     18 H17          0.4320     2.9520    -0.0970 ho         1 PV4       0.481000
     19 H1          -2.9820     1.8940    -0.0200 ha         1 PV4       0.131000
     20 H4           0.5720    -1.3730    -1.2730 ha         1 PV4       0.128000
     21 H13          3.8150     1.0240    -1.8530 ha         1 PV4       0.127500
     22 H9           1.4710    -0.5770     1.4040 ha         1 PV4       0.127500
     23 H12          5.7590    -0.3670    -1.1360 ha         1 PV4       0.114000
     24 H11          5.5510    -1.8670     0.8450 ha         1 PV4       0.116000
     25 H10          3.4070    -1.9700     2.1150 ha         1 PV4       0.114000
     26 H3          -1.8010    -2.0910    -1.2110 ha         1 PV4       0.119000
     27 H141        -4.6680     0.2440    -0.8460 hc         1 PV4       0.049200
     28 H142        -4.1870    -1.3740    -1.3220 hc         1 PV4       0.049200
     29 H151        -3.7730    -1.9660     1.0890 hc         1 PV4       0.042200
     30 H152        -4.2570    -0.3390     1.5670 hc         1 PV4       0.042200
     31 H161        -6.1340    -1.9470     1.8890 hc         1 PV4       0.033367
     32 H162        -6.5680    -0.7480     0.6520 hc         1 PV4       0.033367
     33 H163        -6.0800    -2.3900     0.1680 hc         1 PV4       0.033367
@<TRIPOS>BOND
     1     1     2 1   
     2     1    18 1   
     3     2     3 ar  
     4     2    14 ar  
     5     3     4 1   
     6     3    11 ar  
     7     4     5 1   
     8     5     6 ar  
     9     5    10 ar  
    10     6     7 ar  
    11     6    21 1   
    12     7     8 ar  
    13     7    23 1   
    14     8     9 ar  
    15     8    24 1   
    16     9    10 ar  
    17     9    25 1   
    18    10    22 1   
    19    11    12 ar  
    20    11    20 1   
    21    12    13 ar  
    22    12    26 1   
    23    13    14 ar  
    24    13    15 1   
    25    14    19 1   
    26    15    16 1   
    27    15    27 1   
    28    15    28 1   
    29    16    17 1   
    30    16    29 1   
    31    16    30 1   
    32    17    31 1   
    33    17    32 1   
    34    17    33 1   
@<TRIPOS>SUBSTRUCTURE
     1 PV4         1 TEMP              0 ****  ****    0 ROOT
