@<TRIPOS>MOLECULE
PV4
   33    34     1     0     0
SMALL
abcg2


@<TRIPOS>ATOM
      1 O17         -0.0910     2.4590     0.1050 oh         1 PV4      -0.531100
      2 C6          -0.6170     1.3210    -0.3860 ca         1 PV4       0.144100
      3 C5           0.1390     0.3950    -1.1030 ca         1 PV4      -0.007900
      4 O7           1.4600     0.6820    -1.3550 os         1 PV4      -0.261200
      5 C8           2.4210     0.1360    -0.5490 ca         1 PV4       0.119100
      6 C13          3.7370     0.3080    -0.9670 ca         1 PV4      -0.156000
      7 C12          4.7720    -0.1940    -0.1950 ca         1 PV4      -0.080000
      8 C11          4.5070    -0.8690     0.9910 ca         1 PV4      -0.139000
      9 C10          3.1910    -1.0380     1.3940 ca         1 PV4      -0.080000
     10 C9           2.1400    -0.5390     0.6320 ca         1 PV4      -0.156000
     11 C4          -0.4450    -0.7640    -1.5860 ca         1 PV4      -0.075000
     12 C3          -1.7900    -1.0090    -1.3620 ca         1 PV4      -0.141000
     13 C2          -2.5660    -0.0950    -0.6490 ca         1 PV4      -0.037300
     14 C1          -1.9670     1.0640    -0.1700 ca         1 PV4      -0.144000
     15 C14         -4.0180    -0.3690    -0.3790 c3         1 PV4      -0.036100
     16 C15         -4.2210    -1.3360     0.7890 c3         1 PV4      -0.073400
     17 C16         -5.6920    -1.5830     1.0890 c3         1 PV4      -0.090100
     18 H17          0.8060     2.5910    -0.2270 ho         1 PV4       0.481000
     19 H1          -2.5540     1.7920     0.3800 ha         1 PV4       0.131000
     20 H4           0.1570    -1.4690    -2.1450 ha         1 PV4       0.128000
     21 H13          3.9440     0.8340    -1.8910 ha         1 PV4       0.127500
     22 H9           1.1220    -0.6880     0.9660 ha         1 PV4       0.127500
     23 H12          5.7930    -0.0570    -0.5260 ha         1 PV4       0.114000
     24 H11          5.3170    -1.2580     1.5940 ha         1 PV4       0.116000
     25 H10          2.9670    -1.5630     2.3140 ha         1 PV4       0.114000
     26 H3          -2.2410    -1.9150    -1.7500 ha         1 PV4       0.119000
     27 H141        -4.5350     0.5710    -0.1640 hc         1 PV4       0.049200
     28 H142        -4.4900    -0.7820    -1.2750 hc         1 PV4       0.049200
     29 H151        -3.7240    -2.2840     0.5620 hc         1 PV4       0.042200
     30 H152        -3.7240    -0.9370     1.6770 hc         1 PV4       0.042200
     31 H161        -5.8160    -2.2630     1.9330 hc         1 PV4       0.033367
     32 H162        -6.2040    -0.6510     1.3360 hc         1 PV4       0.033367
     33 H163        -6.2050    -2.0220     0.2320 hc         1 PV4       0.033367
@<TRIPOS>BOND
     1     1     2 1   
     2     1    18 1   
     3     2     3 ar  
     4     2    14 ar  
     5     3     4 1   
     6     3    11 ar  
     7     4     5 1   
     8     5     6 ar  
     9     5    10 ar  
    10     6     7 ar  
    11     6    21 1   
    12     7     8 ar  
    13     7    23 1   
    14     8     9 ar  
    15     8    24 1   
    16     9    10 ar  
    17     9    25 1   
    18    10    22 1   
    19    11    12 ar  
    20    11    20 1   
    21    12    13 ar  
    22    12    26 1   
    23    13    14 ar  
    24    13    15 1   
    25    14    19 1   
    26    15    16 1   
    27    15    27 1   
    28    15    28 1   
    29    16    17 1   
    30    16    29 1   
    31    16    30 1   
    32    17    31 1   
    33    17    32 1   
    34    17    33 1   
@<TRIPOS>SUBSTRUCTURE
     1 PV4         1 TEMP              0 ****  ****    0 ROOT
