@<TRIPOS>MOLECULE
PV5
   46    50     1     0     0
SMALL
No Charge or Current Charge


@<TRIPOS>ATOM
      1 C1         -20.5810    27.0170    11.9130 ca         1 PV5       0.394300
      2 C2         -20.1440    28.2140    12.5570 ca         1 PV5      -0.077000
      3 C3         -18.9130    28.1640    13.2490 ca         1 PV5      -0.057000
      4 N6         -22.6280    40.6590    10.5440 n1         1 PV5      -0.437000
      5 C7         -20.8690    30.3550    13.6470 cc         1 PV5       0.392900
      6 C8         -22.0020    32.0710    12.5370 cd         1 PV5       0.820400
      7 C9         -21.5320    30.0510    11.3960 cd         1 PV5      -0.051000
      8 C10        -22.4480    31.6500    10.1990 cd         1 PV5       0.319700
      9 C11        -22.2190    34.3740    13.5530 c3         1 PV5       0.297100
     10 C12        -22.3150    35.7540    12.9100 ca         1 PV5      -0.073300
     11 C13        -23.3880    36.6310    13.2010 ca         1 PV5       0.132000
     12 C14        -23.4710    37.9010    12.5910 ca         1 PV5      -0.079000
     13 C15        -22.4770    38.3190    11.6790 ca         1 PV5      -0.022000
     14 C16        -21.4110    37.4430    11.4090 ca         1 PV5       0.157100
     15 C19        -19.3980    36.6520    10.7790 c5         1 PV5       0.148600
     16 C20        -22.5530    39.6080    11.0490 cg         1 PV5       0.333000
     17 F          -24.3590    36.2590    14.0660 f          1 PV5      -0.181000
     18 O          -20.3880    37.7080    10.5360 os         1 PV5      -0.312100
     19 C18        -20.1240    35.4600    11.5040 c5         1 PV5      -0.060100
     20 C17        -21.3310    36.1990    11.9990 ca         1 PV5      -0.123300
     21 N5         -22.4970    33.3310    12.5530 nu         1 PV5      -0.938100
     22 N1         -21.4020    31.6440    13.6400 nc         1 PV5      -0.789000
     23 N2         -22.1960    31.2190    11.4660 na         1 PV5      -0.235300
     24 N4         -22.0910    30.6640     9.3780 nc         1 PV5      -0.340700
     25 N3         -21.4960    29.6530    10.1380 nc         1 PV5      -0.094000
     26 C6         -20.9140    29.4860    12.5560 cd         1 PV5      -0.099000
     27 C4         -18.1660    26.9780    13.2330 ca         1 PV5      -0.174000
     28 C5         -18.6620    25.8650    12.5440 ca         1 PV5       0.351900
     29 N          -19.8510    25.8740    11.9060 nb         1 PV5      -0.679000
     30 C          -21.9600    26.8460    11.2900 c3         1 PV5      -0.150400
     31 H1         -18.5160    29.0360    13.7640 ha         1 PV5       0.119000
     32 H2         -20.3900    30.0860    14.5800 h4         1 PV5       0.031100
     33 H3         -22.8720    32.6130     9.9410 h5         1 PV5       0.073800
     34 H4         -21.2080    34.2540    13.9680 h1         1 PV5       0.069200
     35 H5         -22.9220    34.2890    14.3930 h1         1 PV5       0.069200
     36 H6         -24.3090    38.5530    12.8280 ha         1 PV5       0.148000
     37 H7         -18.9310    36.3520     9.8320 h1         1 PV5       0.066700
     38 H8         -19.5110    35.0290    12.3050 hc         1 PV5       0.076200
     39 H9         -23.1960    33.5260    11.8450 hn         1 PV5       0.515000
     40 H10        -17.2070    26.9180    13.7420 ha         1 PV5       0.125000
     41 H11        -18.1000    24.9320    12.5140 h4         1 PV5       0.018100
     42 H12        -22.3620    25.8450    11.4880 hc         1 PV5       0.056700
     43 H13        -22.6850    27.5600    11.6970 hc         1 PV5       0.056700
     44 H14        -21.9200    26.9710    10.2030 hc         1 PV5       0.056700
     45 H15        -18.6150    37.0700    11.4250 h1         1 PV5       0.066700
     46 H16        -20.3860    34.6570    10.8050 hc         1 PV5       0.076200
@<TRIPOS>BOND
     1     1     2 ar  
     2     1    29 ar  
     3     1    30 1   
     4     2     3 ar  
     5     2    26 1   
     6     3    27 ar  
     7     3    31 1   
     8     4    16 3   
     9     5    22 1   
    10     5    26 2   
    11     5    32 1   
    12     6    21 1   
    13     6    22 2   
    14     6    23 1   
    15     7    23 1   
    16     7    25 2   
    17     7    26 1   
    18     8    23 1   
    19     8    24 2   
    20     8    33 1   
    21     9    10 1   
    22     9    21 1   
    23     9    34 1   
    24     9    35 1   
    25    10    11 ar  
    26    10    20 ar  
    27    11    12 ar  
    28    11    17 1   
    29    12    13 ar  
    30    12    36 1   
    31    13    14 ar  
    32    13    16 1   
    33    14    18 1   
    34    14    20 ar  
    35    15    18 1   
    36    15    19 1   
    37    15    37 1   
    38    15    45 1   
    39    19    20 1   
    40    19    38 1   
    41    19    46 1   
    42    21    39 1   
    43    24    25 1   
    44    27    28 ar  
    45    27    40 1   
    46    28    29 ar  
    47    28    41 1   
    48    30    42 1   
    49    30    43 1   
    50    30    44 1   
@<TRIPOS>SUBSTRUCTURE
     1 PV5         1 TEMP              0 ****  ****    0 ROOT
