@<TRIPOS>MOLECULE
PV5
   46    50     1     0     0
SMALL
abcg2


@<TRIPOS>ATOM
      1 C1         -20.2850    27.8250    11.8410 ca         1 PV5       0.394300
      2 C2         -20.2360    29.1320    11.3320 ca         1 PV5      -0.077000
      3 C3         -19.2580    29.4360    10.3930 ca         1 PV5      -0.057000
      4 N6         -19.1780    38.4120     9.5000 n1         1 PV5      -0.437000
      5 C7         -20.7540    31.3170    12.4140 cc         1 PV5       0.392900
      6 C8         -22.8310    32.2740    12.5360 cd         1 PV5       0.820400
      7 C9         -22.5570    30.1170    11.5040 cd         1 PV5      -0.051000
      8 C10        -24.6130    30.8240    11.4870 cd         1 PV5       0.319700
      9 C11        -23.1820    34.4670    13.5090 c3         1 PV5       0.297100
     10 C12        -22.2960    35.3090    12.6290 ca         1 PV5      -0.073300
     11 C13        -22.7280    35.7670    11.3790 ca         1 PV5       0.132000
     12 C14        -21.9620    36.5560    10.5590 ca         1 PV5      -0.079000
     13 C15        -20.6770    36.9330    10.9780 ca         1 PV5      -0.022000
     14 C16        -20.2330    36.4870    12.2140 ca         1 PV5       0.157100
     15 C19        -18.9240    36.1100    14.0160 c5         1 PV5       0.148600
     16 C20        -19.8500    37.7500    10.1620 cg         1 PV5       0.333000
     17 F          -23.9580    35.4190    10.9670 f          1 PV5      -0.181000
     18 O          -19.0340    36.7570    12.7260 os         1 PV5      -0.312100
     19 C18        -20.2540    35.3750    14.2670 c5         1 PV5      -0.060100
     20 C17        -21.0310    35.6900    13.0250 ca         1 PV5      -0.123300
     21 N5         -23.6630    33.2610    12.8740 nu         1 PV5      -0.938100
     22 N1         -21.5600    32.3370    12.7930 nc         1 PV5      -0.789000
     23 N2         -23.3540    31.1700    11.8980 na         1 PV5      -0.235300
     24 N4         -24.5690    29.6700    10.9020 nc         1 PV5      -0.340700
     25 N3         -23.2930    29.2180    10.9010 nc         1 PV5      -0.094000
     26 C6         -21.1660    30.1840    11.7770 cd         1 PV5      -0.099000
     27 C4         -18.3770    28.4510     9.9760 ca         1 PV5      -0.174000
     28 C5         -18.5190    27.1880    10.5210 ca         1 PV5       0.351900
     29 N          -19.4390    26.8850    11.4290 nb         1 PV5      -0.679000
     30 C          -21.2810    27.4250    12.8860 c3         1 PV5      -0.150400
     31 H1         -19.1970    30.4370     9.9860 ha         1 PV5       0.119000
     32 H2         -19.7050    31.4430    12.6560 h4         1 PV5       0.031100
     33 H3         -25.4950    31.4250    11.6350 h5         1 PV5       0.073800
     34 H4         -22.6480    34.2120    14.4240 h1         1 PV5       0.069200
     35 H5         -24.0620    35.0380    13.8070 h1         1 PV5       0.069200
     36 H6         -22.3470    36.8870     9.6040 ha         1 PV5       0.148000
     37 H7         -18.0730    35.4310    13.9770 h1         1 PV5       0.066700
     38 H8         -20.7520    35.7390    15.1670 hc         1 PV5       0.076200
     39 H9         -24.6380    33.2150    12.6320 hn         1 PV5       0.515000
     40 H10        -17.6070    28.6560     9.2450 ha         1 PV5       0.125000
     41 H11        -17.8590    26.3820    10.2190 h4         1 PV5       0.018100
     42 H12        -20.9600    26.5090    13.3780 hc         1 PV5       0.056700
     43 H13        -21.4100    28.2010    13.6410 hc         1 PV5       0.056700
     44 H14        -22.2610    27.2430    12.4430 hc         1 PV5       0.056700
     45 H15        -18.7250    36.8790    14.7600 h1         1 PV5       0.066700
     46 H16        -20.1140    34.3000    14.3820 hc         1 PV5       0.076200
@<TRIPOS>BOND
     1     1     2 ar  
     2     1    29 ar  
     3     1    30 1   
     4     2     3 ar  
     5     2    26 1   
     6     3    27 ar  
     7     3    31 1   
     8     4    16 3   
     9     5    22 1   
    10     5    26 2   
    11     5    32 1   
    12     6    21 1   
    13     6    22 2   
    14     6    23 1   
    15     7    23 1   
    16     7    25 2   
    17     7    26 1   
    18     8    23 1   
    19     8    24 2   
    20     8    33 1   
    21     9    10 1   
    22     9    21 1   
    23     9    34 1   
    24     9    35 1   
    25    10    11 ar  
    26    10    20 ar  
    27    11    12 ar  
    28    11    17 1   
    29    12    13 ar  
    30    12    36 1   
    31    13    14 ar  
    32    13    16 1   
    33    14    18 1   
    34    14    20 ar  
    35    15    18 1   
    36    15    19 1   
    37    15    37 1   
    38    15    45 1   
    39    19    20 1   
    40    19    38 1   
    41    19    46 1   
    42    21    39 1   
    43    24    25 1   
    44    27    28 ar  
    45    27    40 1   
    46    28    29 ar  
    47    28    41 1   
    48    30    42 1   
    49    30    43 1   
    50    30    44 1   
@<TRIPOS>SUBSTRUCTURE
     1 PV5         1 TEMP              0 ****  ****    0 ROOT
