@<TRIPOS>MOLECULE
PV6
   17    17     1     0     0
SMALL
abcg2


@<TRIPOS>ATOM
      1 C10          8.8320    12.4510     6.5000 ca         1 PV6      -0.077000
      2 C1          11.4340    12.4590     5.4650 ca         1 PV6      -0.164600
      3 C2          10.5640    13.5310     5.1910 ca         1 PV6      -0.014000
      4 C3          12.8370    12.4050     4.9410 c          1 PV6       0.613700
      5 C4          10.9640    11.3910     6.2390 ca         1 PV6      -0.078000
      6 C5           9.2730    13.5140     5.7270 ca         1 PV6      -0.108000
      7 S6          10.9850    14.9770     4.2550 sh         1 PV6      -0.221800
      8 N7          13.7560    11.8830     5.7720 nt         1 PV6      -0.595000
      9 O8          13.1400    12.8020     3.8100 o          1 PV6      -0.625100
     10 C9           9.6770    11.3750     6.7510 ca         1 PV6      -0.124000
     11 H1           7.8240    12.4610     6.8950 ha         1 PV6       0.119000
     12 H2          11.6170    10.5480     6.4230 ha         1 PV6       0.111000
     13 H3           8.6080    14.3450     5.5240 ha         1 PV6       0.131000
     14 H4          12.0860    14.4610     3.6770 hs         1 PV6       0.273800
     15 H5          14.7090    11.7960     5.4550 hn         1 PV6       0.320500
     16 H6          13.5400    11.6240     6.7200 hn         1 PV6       0.320500
     17 H7           9.3360    10.5320     7.3380 ha         1 PV6       0.120000
@<TRIPOS>BOND
     1     1     6 ar  
     2     1    10 ar  
     3     1    11 1   
     4     2     3 ar  
     5     2     4 1   
     6     2     5 ar  
     7     3     6 ar  
     8     3     7 1   
     9     4     8 1   
    10     4     9 2   
    11     5    10 ar  
    12     5    12 1   
    13     6    13 1   
    14     7    14 1   
    15     8    15 1   
    16     8    16 1   
    17    10    17 1   
@<TRIPOS>SUBSTRUCTURE
     1 PV6         1 TEMP              0 ****  ****    0 ROOT
