@<TRIPOS>MOLECULE
PV6
   17    17     1     0     0
SMALL
No Charge or Current Charge


@<TRIPOS>ATOM
      1 C10          8.7790    12.4340     6.4750 ca         1 PV6      -0.077000
      2 C1          11.4600    12.5430     5.5300 ca         1 PV6      -0.164600
      3 C2          10.5070    13.5330     5.1340 ca         1 PV6      -0.014000
      4 C3          12.9080    12.5530     5.0510 c          1 PV6       0.613700
      5 C4          11.0230    11.5110     6.4050 ca         1 PV6      -0.078000
      6 C5           9.1850    13.4610     5.6140 ca         1 PV6      -0.108000
      7 S6          10.8810    14.9090     4.0530 sh         1 PV6      -0.221800
      8 N7          13.7640    11.6560     5.5850 nt         1 PV6      -0.595000
      9 O8          13.3430    13.3130     4.2030 o          1 PV6      -0.625100
     10 C9           9.7000    11.4590     6.8700 ca         1 PV6      -0.124000
     11 H1           7.7530    12.3950     6.8350 ha         1 PV6       0.119000
     12 H2          11.6980    10.7260     6.7330 ha         1 PV6       0.111000
     13 H3           8.4630    14.2170     5.3130 ha         1 PV6       0.131000
     14 H4          12.1540    14.5250     3.7770 hs         1 PV6       0.273800
     15 H5          14.7230    11.6510     5.2730 hn         1 PV6       0.320500
     16 H6          13.4530    11.0140     6.2960 hn         1 PV6       0.320500
     17 H7           9.3890    10.6570     7.5370 ha         1 PV6       0.120000
@<TRIPOS>BOND
     1     1     6 ar  
     2     1    10 ar  
     3     1    11 1   
     4     2     3 ar  
     5     2     4 1   
     6     2     5 ar  
     7     3     6 ar  
     8     3     7 1   
     9     4     8 1   
    10     4     9 2   
    11     5    10 ar  
    12     5    12 1   
    13     6    13 1   
    14     7    14 1   
    15     8    15 1   
    16     8    16 1   
    17    10    17 1   
@<TRIPOS>SUBSTRUCTURE
     1 PV6         1 TEMP              0 ****  ****    0 ROOT
