@<TRIPOS>MOLECULE
PV7
   54    57     1     0     0
SMALL
No Charge or Current Charge


@<TRIPOS>ATOM
      1 C2           0.6440     0.1790    -0.2140 ca         1 PV7      -0.091000
      2 C3           0.3060    -1.1610     0.0810 ca         1 PV7      -0.117300
      3 C5           2.5910    -1.8170    -0.5190 ca         1 PV7      -0.203000
      4 C7          -0.1880    -3.7200     1.2500 c6         1 PV7       0.170800
      5 C9          -1.3890    -0.8370     1.9460 c3         1 PV7      -0.123100
      6 C10         -2.1610    -1.0200    -0.4880 c3         1 PV7      -0.146400
      7 C11         -3.6130    -1.3890    -0.1820 c          1 PV7       0.617100
      8 C15         -7.2890    -4.4090    -1.2870 cc         1 PV7      -0.280000
      9 N17         -6.3550    -2.5630    -0.2240 nd         1 PV7      -0.660000
     10 C18          5.2330    -1.0680    -1.4640 c3         1 PV7       0.146900
     11 C20          3.1240     2.5780    -0.2140 ca         1 PV7       0.096100
     12 C21          3.6500     3.7430    -0.7900 ca         1 PV7      -0.186000
     13 C22          4.5840     4.5250    -0.0870 ca         1 PV7      -0.061000
     14 C            2.9160    -0.4790    -0.8270 ca         1 PV7       0.134100
     15 N           -1.3440    -2.9720     0.7190 n7         1 PV7      -0.880400
     16 O           -4.2980    -0.7250     0.5820 o          1 PV7      -0.534100
     17 S           -5.6450    -4.4750    -1.8480 ss         1 PV7      -0.114400
     18 C1           1.9320     0.5200    -0.6570 ca         1 PV7       0.092100
     19 C4           1.3050    -2.1540    -0.0590 ca         1 PV7      -0.033300
     20 C6          -1.1270    -1.5130     0.5690 c6         1 PV7       0.268500
     21 C8           1.0020    -3.6080     0.2870 c6         1 PV7      -0.031100
     22 N12         -4.0740    -2.4830    -0.8780 ns         1 PV7      -0.490400
     23 O13          4.1690    -0.1170    -1.2930 os         1 PV7      -0.305100
     24 C14         -5.3250    -3.0470    -0.8970 cc         1 PV7       0.593300
     25 C16         -7.4820    -3.3420    -0.4440 cd         1 PV7       0.308900
     26 O19          2.2040     1.8440    -0.9310 os         1 PV7      -0.257200
     27 C23          5.0020     4.1540     1.2120 ca         1 PV7      -0.155600
     28 C24          4.4570     2.9820     1.7880 ca         1 PV7      -0.061000
     29 C25          3.5230     2.2020     1.0830 ca         1 PV7      -0.186000
     30 C26          6.0110     4.9970     1.9740 c          1 PV7       0.714600
     31 O27          6.4560     6.0030     1.4390 o          1 PV7      -0.723000
     32 O28          6.3430     4.6420     3.0960 o          1 PV7      -0.723000
     33 H1          -0.0870     0.9740    -0.0940 ha         1 PV7       0.126000
     34 H2           3.3260    -2.6090    -0.6290 ha         1 PV7       0.112000
     35 H3           0.0920    -3.3270     2.2390 h1         1 PV7       0.032700
     36 H4          -0.4600    -4.7790     1.3750 h1         1 PV7       0.032700
     37 H5          -2.3390    -1.1550     2.3900 hc         1 PV7       0.049033
     38 H6          -0.5970    -1.0820     2.6630 hc         1 PV7       0.049033
     39 H7          -1.4170     0.2550     1.8580 hc         1 PV7       0.049033
     40 H8          -1.8780    -1.4630    -1.4500 hc         1 PV7       0.071200
     41 H9          -2.1150     0.0710    -0.5720 hc         1 PV7       0.071200
     42 H10         -8.0070    -5.1520    -1.6090 h4         1 PV7       0.158000
     43 H11          6.1350    -0.5660    -1.8350 h1         1 PV7       0.038367
     44 H12          5.4810    -1.5520    -0.5110 h1         1 PV7       0.038367
     45 H13          4.9520    -1.8420    -2.1910 h1         1 PV7       0.038367
     46 H14          3.3370     4.0410    -1.7870 ha         1 PV7       0.099000
     47 H15          4.9810     5.4230    -0.5580 ha         1 PV7       0.127500
     48 H16         -2.1420    -3.1200     1.3470 hn         1 PV7       0.432000
     49 H18          1.8830    -4.0830     0.7370 hc         1 PV7       0.050700
     50 H19          0.7820    -4.1620    -0.6350 hc         1 PV7       0.050700
     51 H20         -3.3710    -2.9420    -1.4370 hn         1 PV7       0.329500
     52 H21         -8.4160    -3.0800     0.0380 h4         1 PV7       0.040100
     53 H22          4.7540     2.6710     2.7880 ha         1 PV7       0.127500
     54 H23          3.1150     1.3110     1.5530 ha         1 PV7       0.099000
@<TRIPOS>BOND
     1     1     2 ar  
     2     1    18 ar  
     3     1    33 1   
     4     2    19 ar  
     5     2    20 1   
     6     3    14 ar  
     7     3    19 ar  
     8     3    34 1   
     9     4    15 1   
    10     4    21 1   
    11     4    35 1   
    12     4    36 1   
    13     5    20 1   
    14     5    37 1   
    15     5    38 1   
    16     5    39 1   
    17     6     7 1   
    18     6    20 1   
    19     6    40 1   
    20     6    41 1   
    21     7    16 2   
    22     7    22 1   
    23     8    17 1   
    24     8    25 2   
    25     8    42 1   
    26     9    24 2   
    27     9    25 1   
    28    10    23 1   
    29    10    43 1   
    30    10    44 1   
    31    10    45 1   
    32    11    12 ar  
    33    11    26 1   
    34    11    29 ar  
    35    12    13 ar  
    36    12    46 1   
    37    13    27 ar  
    38    13    47 1   
    39    14    18 ar  
    40    14    23 1   
    41    15    20 1   
    42    15    48 1   
    43    17    24 1   
    44    18    26 1   
    45    19    21 1   
    46    21    49 1   
    47    21    50 1   
    48    22    24 1   
    49    22    51 1   
    50    25    52 1   
    51    27    28 ar  
    52    27    30 1   
    53    28    29 ar  
    54    28    53 1   
    55    29    54 1   
    56    30    31 1   
    57    30    32 1   
@<TRIPOS>SUBSTRUCTURE
     1 PV7         1 TEMP              0 ****  ****    0 ROOT
