@<TRIPOS>MOLECULE
PV7
   54    57     1     0     0
SMALL
abcg2


@<TRIPOS>ATOM
      1 C2           0.7910    -0.1900    -0.1720 ca         1 PV7      -0.091000
      2 C3           0.5410    -1.4860     0.2890 ca         1 PV7      -0.117300
      3 C5           2.7980    -2.0640    -0.3540 ca         1 PV7      -0.203000
      4 C7           0.2740    -3.8180     1.7700 c6         1 PV7       0.170800
      5 C9          -1.0460    -0.9540     2.1320 c3         1 PV7      -0.123100
      6 C10         -1.8730    -1.5100    -0.2110 c3         1 PV7      -0.146400
      7 C11         -3.2900    -1.9660     0.0720 c          1 PV7       0.617100
      8 C15         -7.6210    -2.7600    -1.9960 cc         1 PV7      -0.280000
      9 N17         -6.1950    -2.5710    -0.1850 nd         1 PV7      -0.660000
     10 C18          5.2670    -1.2540    -1.4550 c3         1 PV7       0.146900
     11 C20          2.9120     2.3120    -0.4580 ca         1 PV7       0.096100
     12 C21          3.2010     3.5330    -1.0600 ca         1 PV7      -0.186000
     13 C22          3.9050     4.4950    -0.3560 ca         1 PV7      -0.061000
     14 C            3.0340    -0.7840    -0.8280 ca         1 PV7       0.134100
     15 N           -0.9090    -3.2470     1.1600 n7         1 PV7      -0.880400
     16 O           -3.7210    -2.2850     1.1570 o          1 PV7      -0.534100
     17 S           -6.1320    -2.3190    -2.7370 ss         1 PV7      -0.114400
     18 C1           2.0020     0.1580    -0.7230 ca         1 PV7       0.092100
     19 C4           1.5680    -2.4210     0.2050 ca         1 PV7      -0.033300
     20 C6          -0.8280    -1.8170     0.8770 c6         1 PV7       0.268500
     21 C8           1.3850    -3.8110     0.7420 c6         1 PV7      -0.031100
     22 N12         -4.0660    -1.9560    -1.0630 ns         1 PV7      -0.490400
     23 O13          4.1830    -0.3500    -1.3690 os         1 PV7      -0.305100
     24 C14         -5.4000    -2.2810    -1.1590 cc         1 PV7       0.593300
     25 C16         -7.4510    -2.8440    -0.6560 cd         1 PV7       0.308900
     26 O19          2.1950     1.4250    -1.2060 os         1 PV7      -0.257200
     27 C23          4.3380     4.2700     0.9500 ca         1 PV7      -0.155600
     28 C24          4.0370     3.0420     1.5290 ca         1 PV7      -0.061000
     29 C25          3.3310     2.0630     0.8430 ca         1 PV7      -0.186000
     30 C26          5.1070     5.3340     1.7160 c          1 PV7       0.714600
     31 O27          5.3290     6.4040     1.1160 o          1 PV7      -0.723000
     32 O28          5.4530     5.0470     2.8790 o          1 PV7      -0.723000
     33 H1           0.0310     0.5800    -0.1070 ha         1 PV7       0.126000
     34 H2           3.5740    -2.8180    -0.4020 ha         1 PV7       0.112000
     35 H3           0.6070    -3.2850     2.6730 h1         1 PV7       0.032700
     36 H4           0.0430    -4.8400     2.0750 h1         1 PV7       0.032700
     37 H5          -2.0180    -1.1530     2.5800 hc         1 PV7       0.049033
     38 H6          -0.2760    -1.1620     2.8770 hc         1 PV7       0.049033
     39 H7          -0.9960     0.1120     1.9040 hc         1 PV7       0.049033
     40 H8          -1.5420    -1.9740    -1.1450 hc         1 PV7       0.071200
     41 H9          -1.9220    -0.4340    -0.4080 hc         1 PV7       0.071200
     42 H10         -8.5130    -2.9270    -2.5780 h4         1 PV7       0.158000
     43 H11          6.0960    -0.7010    -1.8900 h1         1 PV7       0.038367
     44 H12          5.5670    -1.6250    -0.4720 h1         1 PV7       0.038367
     45 H13          5.0370    -2.1070    -2.0990 h1         1 PV7       0.038367
     46 H14          2.8700     3.7230    -2.0740 ha         1 PV7       0.099000
     47 H15          4.1240     5.4420    -0.8310 ha         1 PV7       0.127500
     48 H16         -1.7130    -3.4140     1.7510 hn         1 PV7       0.432000
     49 H18          2.3190    -4.1680     1.1800 hc         1 PV7       0.050700
     50 H19          1.1330    -4.4990    -0.0700 hc         1 PV7       0.050700
     51 H20         -3.6050    -1.6970    -1.9230 hn         1 PV7       0.329500
     52 H21         -8.2310    -3.1060     0.0430 h4         1 PV7       0.040100
     53 H22          4.3600     2.8400     2.5420 ha         1 PV7       0.127500
     54 H23          3.1100     1.1220     1.3310 ha         1 PV7       0.099000
@<TRIPOS>BOND
     1     1     2 ar  
     2     1    18 ar  
     3     1    33 1   
     4     2    19 ar  
     5     2    20 1   
     6     3    14 ar  
     7     3    19 ar  
     8     3    34 1   
     9     4    15 1   
    10     4    21 1   
    11     4    35 1   
    12     4    36 1   
    13     5    20 1   
    14     5    37 1   
    15     5    38 1   
    16     5    39 1   
    17     6     7 1   
    18     6    20 1   
    19     6    40 1   
    20     6    41 1   
    21     7    16 2   
    22     7    22 1   
    23     8    17 1   
    24     8    25 2   
    25     8    42 1   
    26     9    24 2   
    27     9    25 1   
    28    10    23 1   
    29    10    43 1   
    30    10    44 1   
    31    10    45 1   
    32    11    12 ar  
    33    11    26 1   
    34    11    29 ar  
    35    12    13 ar  
    36    12    46 1   
    37    13    27 ar  
    38    13    47 1   
    39    14    18 ar  
    40    14    23 1   
    41    15    20 1   
    42    15    48 1   
    43    17    24 1   
    44    18    26 1   
    45    19    21 1   
    46    21    49 1   
    47    21    50 1   
    48    22    24 1   
    49    22    51 1   
    50    25    52 1   
    51    27    28 ar  
    52    27    30 1   
    53    28    29 ar  
    54    28    53 1   
    55    29    54 1   
    56    30    31 1   
    57    30    32 1   
@<TRIPOS>SUBSTRUCTURE
     1 PV7         1 TEMP              0 ****  ****    0 ROOT
