@<TRIPOS>MOLECULE
PVA
   19    18     1     0     0
SMALL
No Charge or Current Charge


@<TRIPOS>ATOM
      1 C1          -0.6290     0.7110     0.4200 c3         1 PVA      -0.149500
      2 C2           0.0200     0.2460     1.7730 c3         1 PVA      -0.027700
      3 C3          -0.2820    -1.2260     2.1570 c3         1 PVA      -0.078100
      4 CM           1.5340     0.5440     1.8750 c3         1 PVA      -0.078100
      5 N           -2.1410     0.7020     0.5860 n8         1 PVA      -0.967200
      6 P            0.1900     0.0370    -1.2040 p5         1 PVA       1.299500
      7 O1P          0.2510    -1.4550    -1.1740 o          1 PVA      -0.930500
      8 O2P         -0.6420     0.4620    -2.3710 o          1 PVA      -0.930500
      9 O3P          1.5630     0.6030    -1.3650 o          1 PVA      -0.930500
     10 H1          -0.3720     1.7750     0.3320 h1         1 PVA       0.026700
     11 H2          -0.4450     0.8580     2.5580 hc         1 PVA      -0.047300
     12 H31          0.0820    -1.4360     3.1700 hc         1 PVA       0.018367
     13 H32         -1.3580    -1.4340     2.1440 hc         1 PVA       0.018367
     14 H33          0.2140    -1.9260     1.4760 hc         1 PVA       0.018367
     15 HM1          2.1160    -0.1210     1.2260 hc         1 PVA       0.018367
     16 HM2          1.7480     1.5830     1.5970 hc         1 PVA       0.018367
     17 HM3          1.8840     0.3940     2.9040 hc         1 PVA       0.018367
     18 HN1         -2.4760    -0.2660     0.5340 hn         1 PVA       0.351500
     19 HN2         -2.3740     0.9950     1.5410 hn         1 PVA       0.351500
@<TRIPOS>BOND
     1     1     2 1   
     2     1     5 1   
     3     1     6 1   
     4     1    10 1   
     5     2     3 1   
     6     2     4 1   
     7     2    11 1   
     8     3    12 1   
     9     3    13 1   
    10     3    14 1   
    11     4    15 1   
    12     4    16 1   
    13     4    17 1   
    14     5    18 1   
    15     5    19 1   
    16     6     7 1   
    17     6     8 1   
    18     6     9 1   
@<TRIPOS>SUBSTRUCTURE
     1 PVA         1 TEMP              0 ****  ****    0 ROOT
