@<TRIPOS>MOLECULE
PVA
   19    18     1     0     0
SMALL
bcc


@<TRIPOS>ATOM
      1 C1          -0.5750     0.7440     0.4610 c3         1 PVA       0.008300
      2 C2           0.0460     0.2730     1.7890 c3         1 PVA      -0.027700
      3 C3          -0.0620    -1.2320     2.0220 c3         1 PVA      -0.078100
      4 CM           1.4860     0.7420     1.9660 c3         1 PVA      -0.078100
      5 N           -2.0380     0.6930     0.4790 n8         1 PVA      -0.856800
      6 P           -0.0190    -0.1440    -1.1050 p5         1 PVA       1.141700
      7 O1P         -0.8750    -1.4230    -1.1380 o          1 PVA      -0.930500
      8 O2P         -0.3490     0.8330    -2.2440 o          1 PVA      -0.930500
      9 O3P          1.4880    -0.4130    -0.9710 o          1 PVA      -0.930500
     10 H1          -0.2820     1.7980     0.3490 h1         1 PVA       0.026700
     11 H2          -0.5390     0.7620     2.5840 hc         1 PVA      -0.047300
     12 H31          0.2340    -1.4860     3.0420 hc         1 PVA       0.018367
     13 H32         -1.0810    -1.5930     1.8720 hc         1 PVA       0.018367
     14 H33          0.5850    -1.7760     1.3350 hc         1 PVA       0.018367
     15 HM1          2.1270     0.2770     1.2200 hc         1 PVA       0.018367
     16 HM2          1.5660     1.8260     1.8460 hc         1 PVA       0.018367
     17 HM3          1.8650     0.4950     2.9610 hc         1 PVA       0.018367
     18 HN1         -2.3120    -0.2680     0.3120 hn         1 PVA       0.296300
     19 HN2         -2.3830     0.9340     1.4020 hn         1 PVA       0.296300
@<TRIPOS>BOND
     1     1     2 1   
     2     1     5 1   
     3     1     6 1   
     4     1    10 1   
     5     2     3 1   
     6     2     4 1   
     7     2    11 1   
     8     3    12 1   
     9     3    13 1   
    10     3    14 1   
    11     4    15 1   
    12     4    16 1   
    13     4    17 1   
    14     5    18 1   
    15     5    19 1   
    16     6     7 1   
    17     6     8 1   
    18     6     9 1   
@<TRIPOS>SUBSTRUCTURE
     1 PVA         1 TEMP              0 ****  ****    0 ROOT
