@<TRIPOS>MOLECULE
PVB
   54    56     1     0     0
SMALL
abcg2


@<TRIPOS>ATOM
      1 N1          -0.3320     0.0190     0.0580 nb         1 PVB      -0.333000
      2 C9          -5.1130     1.7850    -0.4850 c3         1 PVB       0.095300
      3 N9          -3.7040     2.1190    -0.2940 na         1 PVB      -0.290300
      4 C4          -2.6680     1.2430    -0.1830 ca         1 PVB       0.168500
      5 N3          -2.7140    -0.0840    -0.1940 nb         1 PVB      -0.323000
      6 C2          -1.5110    -0.6340    -0.0630 ca         1 PVB       0.447900
      7 C6          -0.3190     1.3390     0.0640 ca         1 PVB       0.484900
      8 C5          -1.5360     2.0340    -0.0570 ca         1 PVB      -0.149600
      9 N7          -1.8610     3.3660    -0.0910 nc         1 PVB      -0.537100
     10 C8          -3.1540     3.3720    -0.2350 cd         1 PVB       0.369700
     11 N6           0.8330     2.0440     0.1860 nu         1 PVB      -0.902900
     12 C1A          2.1550     1.6310     0.2830 ca         1 PVB       0.258000
     13 C2A          3.1200     2.6260     0.4720 ca         1 PVB      -0.183000
     14 C3A          4.4540     2.2920     0.5730 ca         1 PVB      -0.066000
     15 C4A          4.9150     0.9790     0.4570 ca         1 PVB      -0.124600
     16 C5A          3.9340     0.0110     0.2750 ca         1 PVB       0.162000
     17 CL1          4.3300    -1.6810     0.1910 cl         1 PVB      -0.217000
     18 C6A          2.5770     0.3050     0.2030 ca         1 PVB      -0.148000
     19 CX           6.4180     0.7240     0.5110 c          1 PVB       0.720600
     20 OX1          7.0660     1.4890     1.2500 o          1 PVB      -0.706500
     21 OX2          6.8610    -0.1890    -0.2040 o          1 PVB      -0.706500
     22 N2          -1.4080    -1.9780    -0.0490 nu         1 PVB      -0.925100
     23 C12         -2.5100    -2.9140    -0.0710 c3         1 PVB       0.254500
     24 C13         -2.6100    -3.6690     1.2680 c3         1 PVB      -0.075700
     25 C16         -2.8430    -2.6960     2.4200 c3         1 PVB      -0.085100
     26 C14         -3.7110    -4.7260     1.2450 c3         1 PVB      -0.085100
     27 C15         -2.3890    -3.8200    -1.2870 c3         1 PVB       0.147600
     28 O1          -1.2280    -4.6100    -1.1570 oh         1 PVB      -0.659000
     29 C11         -5.9680     2.4230     0.6000 c3         1 PVB      -0.105100
     30 C10         -5.5670     2.1750    -1.8850 c3         1 PVB      -0.105100
     31 H9          -5.1650     0.7000    -0.3840 h1         1 PVB       0.086700
     32 H111        -5.9340     3.5130     0.5480 hc         1 PVB       0.042533
     33 H112        -7.0070     2.1200     0.4770 hc         1 PVB       0.042533
     34 H113        -5.6400     2.1160     1.5920 hc         1 PVB       0.042533
     35 H101        -4.9510     1.6970    -2.6470 hc         1 PVB       0.042533
     36 H102        -6.5990     1.8630    -2.0420 hc         1 PVB       0.042533
     37 H103        -5.5200     3.2550    -2.0310 hc         1 PVB       0.042533
     38 H8          -3.7640     4.2610    -0.3030 h5         1 PVB       0.054800
     39 H2          -0.4780    -2.3460     0.0710 hn         1 PVB       0.519000
     40 H6           0.7030     3.0450     0.2050 hn         1 PVB       0.509000
     41 H2A          2.8190     3.6640     0.5490 ha         1 PVB       0.092000
     42 H6A          1.8570    -0.4870     0.0870 ha         1 PVB       0.141000
     43 H3A          5.1770     3.0800     0.7360 ha         1 PVB       0.130000
     44 H12         -3.4240    -2.3300    -0.2030 h1         1 PVB       0.082700
     45 H13         -1.6560    -4.1780     1.4440 hc         1 PVB       0.064700
     46 H151        -3.2920    -4.4370    -1.3750 h1         1 PVB       0.024700
     47 H152        -2.3490    -3.1880    -2.1830 h1         1 PVB       0.024700
     48 H161        -3.7790    -2.1470     2.2880 hc         1 PVB       0.032367
     49 H162        -2.9050    -3.2320     3.3680 hc         1 PVB       0.032367
     50 H163        -2.0400    -1.9640     2.5110 hc         1 PVB       0.032367
     51 H141        -3.5020    -5.5290     0.5380 hc         1 PVB       0.032367
     52 H142        -3.8190    -5.1820     2.2300 hc         1 PVB       0.032367
     53 H143        -4.6760    -4.2870     0.9790 hc         1 PVB       0.032367
     54 H1          -1.1200    -5.1230    -1.9630 ho         1 PVB       0.440000
@<TRIPOS>BOND
     1     1     6 ar  
     2     1     7 ar  
     3     2     3 1   
     4     2    29 1   
     5     2    30 1   
     6     2    31 1   
     7     3     4 1   
     8     3    10 1   
     9     4     5 ar  
    10     4     8 ar  
    11     5     6 ar  
    12     6    22 1   
    13     7     8 ar  
    14     7    11 1   
    15     8     9 1   
    16     9    10 2   
    17    10    38 1   
    18    11    12 1   
    19    11    40 1   
    20    12    13 ar  
    21    12    18 ar  
    22    13    14 ar  
    23    13    41 1   
    24    14    15 ar  
    25    14    43 1   
    26    15    16 ar  
    27    15    19 1   
    28    16    17 1   
    29    16    18 ar  
    30    18    42 1   
    31    19    20 1   
    32    19    21 1   
    33    22    23 1   
    34    22    39 1   
    35    23    24 1   
    36    23    27 1   
    37    23    44 1   
    38    24    25 1   
    39    24    26 1   
    40    24    45 1   
    41    25    48 1   
    42    25    49 1   
    43    25    50 1   
    44    26    51 1   
    45    26    52 1   
    46    26    53 1   
    47    27    28 1   
    48    27    46 1   
    49    27    47 1   
    50    28    54 1   
    51    29    32 1   
    52    29    33 1   
    53    29    34 1   
    54    30    35 1   
    55    30    36 1   
    56    30    37 1   
@<TRIPOS>SUBSTRUCTURE
     1 PVB         1 TEMP              0 ****  ****    0 ROOT
