@<TRIPOS>MOLECULE
PVB
   54    56     1     0     0
SMALL
No Charge or Current Charge


@<TRIPOS>ATOM
      1 N1          -0.2500    -0.0890    -0.0310 nb         1 PVB      -0.333000
      2 C9          -5.0950     1.7690    -0.5430 c3         1 PVB       0.095300
      3 N9          -3.6660     2.1220    -0.4660 na         1 PVB      -0.290300
      4 C4          -2.6440     1.2190    -0.3400 ca         1 PVB       0.168500
      5 N3          -2.6430    -0.1240    -0.3070 nb         1 PVB      -0.323000
      6 C2          -1.4370    -0.7040    -0.1470 ca         1 PVB       0.447900
      7 C6          -0.2730     1.2530    -0.0820 ca         1 PVB       0.484900
      8 C5          -1.4900     1.9510    -0.2270 ca         1 PVB      -0.149600
      9 N7          -1.7180     3.3260    -0.2660 nc         1 PVB      -0.537100
     10 C8          -3.0560     3.3860    -0.4050 cd         1 PVB       0.369700
     11 N6           0.9130     1.9660     0.0610 nu         1 PVB      -0.902900
     12 C1A          2.2680     1.6440     0.1650 ca         1 PVB       0.258000
     13 C2A          3.1270     2.5940     0.7370 ca         1 PVB      -0.183000
     14 C3A          4.5030     2.3320     0.8620 ca         1 PVB      -0.066000
     15 C4A          5.0390     1.1140     0.4000 ca         1 PVB      -0.124600
     16 C5A          4.1770     0.1630    -0.1820 ca         1 PVB       0.162000
     17 Cl1          4.7760    -1.3960    -0.7530 cl         1 PVB      -0.217000
     18 C6A          2.8040     0.4300    -0.3020 ca         1 PVB      -0.148000
     19 CX           6.5110     0.8530     0.5350 c          1 PVB       0.720600
     20 OX1          6.9920     0.8710     1.6590 o          1 PVB      -0.706500
     21 OX2          7.1740     0.7270    -0.4850 o          1 PVB      -0.706500
     22 N2          -1.3850    -2.0830    -0.0900 nu         1 PVB      -0.925100
     23 C12         -2.4990    -3.0580    -0.1420 c3         1 PVB       0.254500
     24 C13         -2.9430    -3.4720     1.3050 c3         1 PVB      -0.075700
     25 C16         -3.3970    -2.2650     2.1700 c3         1 PVB      -0.085100
     26 C14         -4.0600    -4.5490     1.3020 c3         1 PVB      -0.085100
     27 C15         -2.0520    -4.2600    -1.0430 c3         1 PVB       0.147600
     28 O1          -0.8660    -4.9090    -0.5350 oh         1 PVB      -0.659000
     29 C11         -5.7750     1.8980     0.8350 c3         1 PVB      -0.105100
     30 C10         -5.8320     2.5840    -1.6270 c3         1 PVB      -0.105100
     31 H9          -5.1590     0.7130    -0.8400 h1         1 PVB       0.086700
     32 H111        -5.7480     2.9350     1.1900 hc         1 PVB       0.042533
     33 H112        -6.8230     1.5780     0.7810 hc         1 PVB       0.042533
     34 H113        -5.2660     1.2680     1.5750 hc         1 PVB       0.042533
     35 H101        -5.3440     2.4580    -2.6010 hc         1 PVB       0.042533
     36 H102        -6.8710     2.2450    -1.7230 hc         1 PVB       0.042533
     37 H103        -5.8430     3.6520    -1.3810 hc         1 PVB       0.042533
     38 H8          -3.6430     4.2950    -0.4610 h5         1 PVB       0.054800
     39 H2          -0.4490    -2.4820    -0.0210 hn         1 PVB       0.519000
     40 H6           0.7100     2.9590     0.1690 hn         1 PVB       0.509000
     41 H2A          2.7320     3.5410     1.0960 ha         1 PVB       0.092000
     42 H6A          2.1710    -0.3110    -0.7730 ha         1 PVB       0.141000
     43 H3A          5.1560     3.0770     1.3140 ha         1 PVB       0.130000
     44 H12         -3.3660    -2.6080    -0.6460 h1         1 PVB       0.082700
     45 H13         -2.0730    -3.9150     1.8060 hc         1 PVB       0.064700
     46 H151        -2.8740    -4.9800    -1.1360 h1         1 PVB       0.024700
     47 H152        -1.8570    -3.8770    -2.0540 h1         1 PVB       0.024700
     48 H161        -4.2310    -1.7350     1.6940 hc         1 PVB       0.032367
     49 H162        -3.7270    -2.5990     3.1610 hc         1 PVB       0.032367
     50 H163        -2.5770    -1.5540     2.3250 hc         1 PVB       0.032367
     51 H141        -3.7060    -5.4910     0.8690 hc         1 PVB       0.032367
     52 H142        -4.3900    -4.7690     2.3250 hc         1 PVB       0.032367
     53 H143        -4.9310    -4.2070     0.7300 hc         1 PVB       0.032367
     54 H1          -0.6420    -5.6290    -1.1650 ho         1 PVB       0.440000
@<TRIPOS>BOND
     1     1     6 ar  
     2     1     7 ar  
     3     2     3 1   
     4     2    29 1   
     5     2    30 1   
     6     2    31 1   
     7     3     4 1   
     8     3    10 1   
     9     4     5 ar  
    10     4     8 ar  
    11     5     6 ar  
    12     6    22 1   
    13     7     8 ar  
    14     7    11 1   
    15     8     9 1   
    16     9    10 2   
    17    10    38 1   
    18    11    12 1   
    19    11    40 1   
    20    12    13 ar  
    21    12    18 ar  
    22    13    14 ar  
    23    13    41 1   
    24    14    15 ar  
    25    14    43 1   
    26    15    16 ar  
    27    15    19 1   
    28    16    17 1   
    29    16    18 ar  
    30    18    42 1   
    31    19    20 1   
    32    19    21 1   
    33    22    23 1   
    34    22    39 1   
    35    23    24 1   
    36    23    27 1   
    37    23    44 1   
    38    24    25 1   
    39    24    26 1   
    40    24    45 1   
    41    25    48 1   
    42    25    49 1   
    43    25    50 1   
    44    26    51 1   
    45    26    52 1   
    46    26    53 1   
    47    27    28 1   
    48    27    46 1   
    49    27    47 1   
    50    28    54 1   
    51    29    32 1   
    52    29    33 1   
    53    29    34 1   
    54    30    35 1   
    55    30    36 1   
    56    30    37 1   
@<TRIPOS>SUBSTRUCTURE
     1 PVB         1 TEMP              0 ****  ****    0 ROOT
