@<TRIPOS>MOLECULE
PVC
   69    68     1     0     0
SMALL
abcg2


@<TRIPOS>ATOM
      1 CP1         -2.7390    -0.1030     0.9920 c          1 PVC       0.593100
      2 OP          -2.7560    -0.3410     2.1740 o          1 PVC      -0.506000
      3 CP2         -1.5060    -0.0780     0.1290 c3         1 PVC      -0.142400
      4 CP3         -0.2060    -0.1560     0.9140 c3         1 PVC      -0.066400
      5 CP4          1.0110    -0.1360    -0.0020 c3         1 PVC      -0.076400
      6 CP5          2.3280    -0.1780     0.7630 c3         1 PVC      -0.074400
      7 CP6          3.5500    -0.1640    -0.1450 c3         1 PVC      -0.074400
      8 CP7          4.8680    -0.1700     0.6200 c3         1 PVC      -0.074400
      9 CP8          6.0910    -0.1570    -0.2890 c3         1 PVC      -0.074400
     10 CP9          7.4090    -0.1340     0.4760 c3         1 PVC      -0.074400
     11 CPA          8.6320    -0.1210    -0.4330 c3         1 PVC      -0.074400
     12 CPB          9.9500    -0.0800     0.3300 c3         1 PVC      -0.074400
     13 CPC         11.1720    -0.0670    -0.5810 c3         1 PVC      -0.074400
     14 CPD         12.4910    -0.0190     0.1800 c3         1 PVC      -0.074400
     15 CC6         -5.0880     0.1690     0.9660 c3         1 PVC       0.133600
     16 CC5         -6.1430     0.6280    -0.0260 c3         1 PVC       0.138300
     17 CC4         -7.5440     0.4780     0.5860 c3         1 PVC       0.222500
     18 CC3         -8.6110     0.8810    -0.3990 c2         1 PVC      -0.047100
     19 CC2         -9.1840     0.0960    -1.3190 ce         1 PVC      -0.069100
     20 CC1         -8.9300    -1.3650    -1.5910 c          1 PVC       0.703200
     21 O2         -10.1310     0.6380    -2.1410 oh         1 PVC      -0.606100
     22 O3          -8.9430     2.1970    -0.2770 oh         1 PVC      -0.594100
     23 O4          -7.6650     1.1960     1.7970 oh         1 PVC      -0.685000
     24 O5          -5.8830     1.9280    -0.5000 oh         1 PVC      -0.645000
     25 O6          -3.8320     0.1610     0.2850 os         1 PVC      -0.435100
     26 OC1         -9.6770    -1.8250    -2.4890 o          1 PVC      -0.713000
     27 OC2         -8.0520    -1.9770    -0.9610 o          1 PVC      -0.713000
     28 CPE         13.7110    -0.0060    -0.7330 c3         1 PVC      -0.076400
     29 CPF         15.0330     0.0390     0.0230 c3         1 PVC      -0.075400
     30 CPG         16.2410     0.0520    -0.9030 c3         1 PVC      -0.088100
     31 HP21        -1.5770    -0.9160    -0.5740 hc         1 PVC       0.071200
     32 HP22        -1.5300     0.8240    -0.4900 hc         1 PVC       0.071200
     33 HP31        -0.1460     0.6830     1.6130 hc         1 PVC       0.050700
     34 HP32        -0.1900    -1.0650     1.5200 hc         1 PVC       0.050700
     35 HP41         0.9620    -0.9860    -0.6920 hc         1 PVC       0.037200
     36 HP42         0.9850     0.7630    -0.6270 hc         1 PVC       0.037200
     37 HP51         2.3760     0.6760     1.4480 hc         1 PVC       0.038200
     38 HP52         2.3540    -1.0740     1.3950 hc         1 PVC       0.038200
     39 HP61         3.5140    -1.0300    -0.8160 hc         1 PVC       0.037200
     40 HP62         3.5110     0.7200    -0.7910 hc         1 PVC       0.037200
     41 HP71         4.9030     0.6990     1.2860 hc         1 PVC       0.036700
     42 HP72         4.9080    -1.0510     1.2700 hc         1 PVC       0.036700
     43 HP81         6.0660    -1.0350    -0.9450 hc         1 PVC       0.036700
     44 HP82         6.0410     0.7150    -0.9500 hc         1 PVC       0.036700
     45 HP91         7.4340     0.7450     1.1290 hc         1 PVC       0.036700
     46 HP92         7.4600    -1.0050     1.1400 hc         1 PVC       0.036700
     47 HPA1         8.6130    -1.0060    -1.0800 hc         1 PVC       0.036700
     48 HPA2         8.5740     0.7440    -1.1040 hc         1 PVC       0.036700
     49 HPB1         9.9690     0.8060     0.9750 hc         1 PVC       0.036700
     50 HPB2        10.0080    -0.9440     1.0020 hc         1 PVC       0.036700
     51 HPC1        11.1550    -0.9540    -1.2240 hc         1 PVC       0.036700
     52 HPC2        11.1110     0.7950    -1.2550 hc         1 PVC       0.036700
     53 HPD1        12.5090     0.8690     0.8220 hc         1 PVC       0.036700
     54 HPD2        12.5530    -0.8810     0.8540 hc         1 PVC       0.036700
     55 HC61        -5.0460     0.8380     1.8290 h1         1 PVC       0.057200
     56 HC62        -5.3240    -0.8350     1.3290 h1         1 PVC       0.057200
     57 HC5         -6.1150    -0.0310    -0.8980 h1         1 PVC       0.118700
     58 HC4         -7.6740    -0.5770     0.8250 h1         1 PVC       0.119700
     59 H2         -10.4010    -0.1300    -2.6830 ho         1 PVC       0.500000
     60 H3          -9.6700     2.4120    -0.8730 ho         1 PVC       0.468000
     61 H4          -7.9410     2.0990     1.6030 ho         1 PVC       0.451000
     62 H5          -5.8720     2.5350     0.2470 ho         1 PVC       0.425000
     63 HPE1        13.6920    -0.8930    -1.3770 hc         1 PVC       0.036700
     64 HPE2        13.6500     0.8570    -1.4070 hc         1 PVC       0.036700
     65 HPF1        15.0530     0.9250     0.6660 hc         1 PVC       0.036200
     66 HPF2        15.0940    -0.8230     0.6950 hc         1 PVC       0.036200
     67 HPG1        17.1780     0.0800    -0.3460 hc         1 PVC       0.030033
     68 HPG2        16.2600    -0.8370    -1.5360 hc         1 PVC       0.030033
     69 HPG3        16.2210     0.9230    -1.5610 hc         1 PVC       0.030033
@<TRIPOS>BOND
     1     1     2 2   
     2     1     3 1   
     3     1    25 1   
     4     3     4 1   
     5     3    31 1   
     6     3    32 1   
     7     4     5 1   
     8     4    33 1   
     9     4    34 1   
    10     5     6 1   
    11     5    35 1   
    12     5    36 1   
    13     6     7 1   
    14     6    37 1   
    15     6    38 1   
    16     7     8 1   
    17     7    39 1   
    18     7    40 1   
    19     8     9 1   
    20     8    41 1   
    21     8    42 1   
    22     9    10 1   
    23     9    43 1   
    24     9    44 1   
    25    10    11 1   
    26    10    45 1   
    27    10    46 1   
    28    11    12 1   
    29    11    47 1   
    30    11    48 1   
    31    12    13 1   
    32    12    49 1   
    33    12    50 1   
    34    13    14 1   
    35    13    51 1   
    36    13    52 1   
    37    14    28 1   
    38    14    53 1   
    39    14    54 1   
    40    15    16 1   
    41    15    25 1   
    42    15    55 1   
    43    15    56 1   
    44    16    17 1   
    45    16    24 1   
    46    16    57 1   
    47    17    18 1   
    48    17    23 1   
    49    17    58 1   
    50    18    19 2   
    51    18    22 1   
    52    19    20 1   
    53    19    21 1   
    54    20    26 1   
    55    20    27 1   
    56    21    59 1   
    57    22    60 1   
    58    23    61 1   
    59    24    62 1   
    60    28    29 1   
    61    28    63 1   
    62    28    64 1   
    63    29    30 1   
    64    29    65 1   
    65    29    66 1   
    66    30    67 1   
    67    30    68 1   
    68    30    69 1   
@<TRIPOS>SUBSTRUCTURE
     1 PVC         1 TEMP              0 ****  ****    0 ROOT
