@<TRIPOS>MOLECULE
PVC
   69    68     1     0     0
SMALL
No Charge or Current Charge


@<TRIPOS>ATOM
      1 CP1         -3.0150    -1.9400     0.8020 c          1 PVC       0.593100
      2 OP          -3.3630    -2.6000     1.7730 o          1 PVC      -0.506000
      3 CP2         -1.7290    -2.2030     0.0150 c3         1 PVC      -0.142400
      4 CP3         -0.5150    -1.5070     0.6740 c3         1 PVC      -0.066400
      5 CP4          0.8050    -1.7410    -0.0930 c3         1 PVC      -0.076400
      6 CP5          2.0180    -1.0470     0.5660 c3         1 PVC      -0.074400
      7 CP6          3.3380    -1.2810    -0.2010 c3         1 PVC      -0.074400
      8 CP7          4.5500    -0.5880     0.4570 c3         1 PVC      -0.074400
      9 CP8          5.8700    -0.8230    -0.3100 c3         1 PVC      -0.074400
     10 CP9          7.0830    -0.1300     0.3490 c3         1 PVC      -0.074400
     11 CPA          8.4030    -0.3640    -0.4180 c3         1 PVC      -0.074400
     12 CPB          9.6160     0.3290     0.2410 c3         1 PVC      -0.074400
     13 CPC         10.9360     0.0940    -0.5260 c3         1 PVC      -0.074400
     14 CPD         12.1490     0.7870     0.1320 c3         1 PVC      -0.074400
     15 CC6         -4.9520    -0.5090     0.9430 c3         1 PVC       0.133600
     16 CC5         -5.5590     0.7180     0.2100 c3         1 PVC       0.138300
     17 CC4         -6.9840     1.0690     0.7500 c3         1 PVC       0.222500
     18 CC3         -7.7150     2.1330    -0.0890 c2         1 PVC      -0.047100
     19 CC2         -8.3270     1.9660    -1.2910 ce         1 PVC      -0.069100
     20 CC1         -8.4240     0.6530    -2.0790 c          1 PVC       0.703200
     21 O2          -8.9400     3.0350    -1.9050 oh         1 PVC      -0.606100
     22 O3          -7.7550     3.3600     0.4790 oh         1 PVC      -0.594100
     23 O4          -6.8850     1.5740     2.0910 oh         1 PVC      -0.685000
     24 O5          -4.6810     1.8640     0.3290 oh         1 PVC      -0.645000
     25 O6          -3.7180    -0.8800     0.2930 os         1 PVC      -0.435100
     26 OC1         -9.0110     0.7090    -3.1520 o          1 PVC      -0.713000
     27 OC2         -7.9480    -0.3790    -1.6340 o          1 PVC      -0.713000
     28 CPE         13.4690     0.5520    -0.6340 c3         1 PVC      -0.076400
     29 CPF         14.6820     1.2450     0.0240 c3         1 PVC      -0.075400
     30 CPG         15.9990     1.0110    -0.7410 c3         1 PVC      -0.088100
     31 HP21        -1.5460    -3.2830    -0.0240 hc         1 PVC       0.071200
     32 HP22        -1.8370    -1.7920    -0.9960 hc         1 PVC       0.071200
     33 HP31        -0.7090    -0.4290     0.7390 hc         1 PVC       0.050700
     34 HP32        -0.4040    -1.8740     1.7030 hc         1 PVC       0.050700
     35 HP41         0.9980    -2.8190    -0.1570 hc         1 PVC       0.037200
     36 HP42         0.6950    -1.3730    -1.1210 hc         1 PVC       0.037200
     37 HP51         1.8250     0.0310     0.6300 hc         1 PVC       0.038200
     38 HP52         2.1290    -1.4150     1.5940 hc         1 PVC       0.038200
     39 HP61         3.5300    -2.3600    -0.2660 hc         1 PVC       0.037200
     40 HP62         3.2270    -0.9140    -1.2290 hc         1 PVC       0.037200
     41 HP71         4.3580     0.4900     0.5210 hc         1 PVC       0.036700
     42 HP72         4.6610    -0.9560     1.4850 hc         1 PVC       0.036700
     43 HP81         6.0630    -1.9010    -0.3740 hc         1 PVC       0.036700
     44 HP82         5.7600    -0.4550    -1.3380 hc         1 PVC       0.036700
     45 HP91         6.8910     0.9490     0.4130 hc         1 PVC       0.036700
     46 HP92         7.1940    -0.4970     1.3770 hc         1 PVC       0.036700
     47 HPA1         8.5960    -1.4430    -0.4820 hc         1 PVC       0.036700
     48 HPA2         8.2930     0.0030    -1.4460 hc         1 PVC       0.036700
     49 HPB1         9.4240     1.4070     0.3050 hc         1 PVC       0.036700
     50 HPB2         9.7270    -0.0390     1.2690 hc         1 PVC       0.036700
     51 HPC1        11.1280    -0.9840    -0.5900 hc         1 PVC       0.036700
     52 HPC2        10.8260     0.4610    -1.5540 hc         1 PVC       0.036700
     53 HPD1        11.9570     1.8650     0.1960 hc         1 PVC       0.036700
     54 HPD2        12.2590     0.4200     1.1600 hc         1 PVC       0.036700
     55 HC61        -4.7780    -0.2580     1.9980 h1         1 PVC       0.057200
     56 HC62        -5.6680    -1.3410     0.9050 h1         1 PVC       0.057200
     57 HC5         -5.6620     0.4380    -0.8470 h1         1 PVC       0.118700
     58 HC4         -7.5870     0.1490     0.7500 h1         1 PVC       0.119700
     59 H2          -9.2990     2.6510    -2.7460 ho         1 PVC       0.500000
     60 H3          -8.2450     3.9130    -0.1770 ho         1 PVC       0.468000
     61 H4          -7.2680     2.4800     1.9840 ho         1 PVC       0.451000
     62 H5          -4.9740     2.3300     1.1420 ho         1 PVC       0.425000
     63 HPE1        13.6610    -0.5260    -0.6980 hc         1 PVC       0.036700
     64 HPE2        13.3590     0.9190    -1.6620 hc         1 PVC       0.036700
     65 HPF1        14.4940     2.3240     0.0880 hc         1 PVC       0.036200
     66 HPF2        14.7970     0.8790     1.0520 hc         1 PVC       0.036200
     67 HPG1        16.8290     1.5210    -0.2370 hc         1 PVC       0.030033
     68 HPG2        16.2340    -0.0590    -0.7910 hc         1 PVC       0.030033
     69 HPG3        15.9280     1.3990    -1.7640 hc         1 PVC       0.030033
@<TRIPOS>BOND
     1     1     2 2   
     2     1     3 1   
     3     1    25 1   
     4     3     4 1   
     5     3    31 1   
     6     3    32 1   
     7     4     5 1   
     8     4    33 1   
     9     4    34 1   
    10     5     6 1   
    11     5    35 1   
    12     5    36 1   
    13     6     7 1   
    14     6    37 1   
    15     6    38 1   
    16     7     8 1   
    17     7    39 1   
    18     7    40 1   
    19     8     9 1   
    20     8    41 1   
    21     8    42 1   
    22     9    10 1   
    23     9    43 1   
    24     9    44 1   
    25    10    11 1   
    26    10    45 1   
    27    10    46 1   
    28    11    12 1   
    29    11    47 1   
    30    11    48 1   
    31    12    13 1   
    32    12    49 1   
    33    12    50 1   
    34    13    14 1   
    35    13    51 1   
    36    13    52 1   
    37    14    28 1   
    38    14    53 1   
    39    14    54 1   
    40    15    16 1   
    41    15    25 1   
    42    15    55 1   
    43    15    56 1   
    44    16    17 1   
    45    16    24 1   
    46    16    57 1   
    47    17    18 1   
    48    17    23 1   
    49    17    58 1   
    50    18    19 2   
    51    18    22 1   
    52    19    20 1   
    53    19    21 1   
    54    20    26 1   
    55    20    27 1   
    56    21    59 1   
    57    22    60 1   
    58    23    61 1   
    59    24    62 1   
    60    28    29 1   
    61    28    63 1   
    62    28    64 1   
    63    29    30 1   
    64    29    65 1   
    65    29    66 1   
    66    30    67 1   
    67    30    68 1   
    68    30    69 1   
@<TRIPOS>SUBSTRUCTURE
     1 PVC         1 TEMP              0 ****  ****    0 ROOT
