@<TRIPOS>MOLECULE
PVE
   43    45     1     0     0
SMALL
bcc


@<TRIPOS>ATOM
      1 O23        -70.7410   -28.2470    21.7570 o          1 PVE      -0.845800
      2 C22        -70.6350   -27.1810    22.4180 c          1 PVE       0.946600
      3 O24        -71.5630   -26.5870    22.9850 o          1 PVE      -0.845800
      4 C21        -69.2370   -26.5600    22.5370 c3         1 PVE      -0.206400
      5 C20        -68.1980   -27.1620    21.6040 c3         1 PVE      -0.121400
      6 C18        -67.9600   -28.6170    21.9040 c          1 PVE       0.695100
      7 O19        -67.6980   -29.0280    23.0200 o          1 PVE      -0.603100
      8 N17        -68.0260   -29.4560    20.8350 ns         1 PVE      -0.505100
      9 C3         -67.9300   -30.8490    20.9880 ca         1 PVE      -0.010400
     10 C4         -66.8200   -31.5290    20.6380 ca         1 PVE      -0.037000
     11 C10        -66.7570   -32.9380    20.7630 ca         1 PVE      -0.117000
     12 C5         -65.6200   -33.6570    20.3580 ca         1 PVE      -0.137000
     13 C6         -65.5770   -35.0210    20.4630 ca         1 PVE       0.019100
     14 O25        -64.5360   -35.7990    20.1050 oh         1 PVE      -0.522100
     15 C7         -66.7020   -35.7050    20.9770 ca         1 PVE       0.166100
     16 O26        -66.7080   -37.0390    21.0750 oh         1 PVE      -0.484100
     17 C8         -67.8230   -35.0110    21.3840 ca         1 PVE      -0.165000
     18 C9         -67.8650   -33.6160    21.2920 ca         1 PVE       0.112700
     19 N1         -68.9730   -32.8900    21.7100 na         1 PVE      -0.047100
     20 C14        -70.1260   -33.6260    22.2390 c6         1 PVE      -0.142000
     21 C15        -70.9800   -34.2160    21.0810 c          1 PVE       0.926600
     22 O16        -70.8020   -33.7330    19.9540 o          1 PVE      -0.792300
     23 C2         -69.0670   -31.5590    21.5160 ca         1 PVE       0.190500
     24 N11        -70.1630   -30.8910    21.8100 nu         1 PVE      -0.216200
     25 C12        -71.3510   -31.4750    22.3900 c6         1 PVE       0.027300
     26 C13        -70.9620   -32.7270    23.1350 c6         1 PVE      -0.101400
     27 OXT        -71.7810   -35.0970    21.4360 o          1 PVE      -0.792300
     28 H211       -69.3070   -25.4850    22.3550 hc         1 PVE       0.045200
     29 H212       -68.9040   -26.6590    23.5750 hc         1 PVE       0.045200
     30 H201       -68.4860   -27.0130    20.5620 hc         1 PVE       0.040700
     31 H202       -67.2440   -26.6430    21.7410 hc         1 PVE       0.040700
     32 H17        -68.3280   -29.0920    19.9440 hn         1 PVE       0.336500
     33 H4         -65.9680   -30.9910    20.2410 ha         1 PVE       0.143000
     34 H5         -64.7730   -33.1130    19.9570 ha         1 PVE       0.130000
     35 H25        -63.8300   -35.2780    19.7060 ho         1 PVE       0.432000
     36 H26        -65.8850   -37.4140    20.7390 ho         1 PVE       0.442000
     37 H8         -68.6520   -35.5960    21.7520 ha         1 PVE       0.187000
     38 H14        -69.7400   -34.4270    22.8660 h1         1 PVE       0.068700
     39 H131       -71.8440   -33.2790    23.4550 hc         1 PVE       0.064700
     40 H132       -70.3980   -32.4650    24.0330 hc         1 PVE       0.064700
     41 H11        -70.1890   -29.8660    21.6880 hn         1 PVE       0.392700
     42 H121       -71.7900   -30.7360    23.0580 h1         1 PVE       0.087700
     43 H122       -72.0860   -31.6840    21.6090 h1         1 PVE       0.087700
@<TRIPOS>BOND
     1     1     2 1   
     2     2     3 1   
     3     2     4 1   
     4     4     5 1   
     5     4    28 1   
     6     4    29 1   
     7     5     6 1   
     8     5    30 1   
     9     5    31 1   
    10     6     7 2   
    11     6     8 1   
    12     8     9 1   
    13     8    32 1   
    14     9    10 ar  
    15     9    23 ar  
    16    10    11 ar  
    17    10    33 1   
    18    11    12 ar  
    19    11    18 ar  
    20    12    13 ar  
    21    12    34 1   
    22    13    14 1   
    23    13    15 ar  
    24    14    35 1   
    25    15    16 1   
    26    15    17 ar  
    27    16    36 1   
    28    17    18 ar  
    29    17    37 1   
    30    18    19 2   
    31    19    20 1   
    32    19    23 1   
    33    20    21 1   
    34    20    26 1   
    35    20    38 1   
    36    21    22 1   
    37    21    27 1   
    38    23    24 1   
    39    24    25 1   
    40    24    41 1   
    41    25    26 1   
    42    25    42 1   
    43    25    43 1   
    44    26    39 1   
    45    26    40 1   
@<TRIPOS>SUBSTRUCTURE
     1 PVE         1 TEMP              0 ****  ****    0 ROOT
