@<TRIPOS>MOLECULE
PVE
   43    45     1     0     0
SMALL
No Charge or Current Charge


@<TRIPOS>ATOM
      1 O23        -70.3100   -28.2720    23.0050 o          1 PVE      -0.740500
      2 C22        -70.1970   -27.1450    22.5460 c          1 PVE       0.736000
      3 O24        -71.0960   -26.5600    21.9640 o          1 PVE      -0.740500
      4 C21        -68.7990   -26.5030    22.5500 c3         1 PVE      -0.206400
      5 C20        -67.9750   -26.9900    21.3180 c3         1 PVE      -0.121400
      6 C18        -67.4380   -28.4170    21.5300 c          1 PVE       0.628100
      7 O19        -66.3520   -28.6410    22.0560 o          1 PVE      -0.603100
      8 N17        -68.3040   -29.4150    21.1200 ns         1 PVE      -0.179000
      9 C3         -68.1850   -30.8260    21.2080 ca         1 PVE      -0.103000
     10 C4         -66.9890   -31.4570    20.8390 ca         1 PVE      -0.019000
     11 C10        -66.8860   -32.8560    20.8860 ca         1 PVE      -0.117000
     12 C5         -65.6730   -33.4590    20.4940 ca         1 PVE      -0.119000
     13 C6         -65.5410   -34.8540    20.5110 ca         1 PVE       0.019100
     14 O25        -64.3630   -35.4450    20.1300 oh         1 PVE      -0.561100
     15 C7         -66.6290   -35.6460    20.9160 ca         1 PVE       0.166100
     16 O26        -66.4970   -37.0020    20.9230 oh         1 PVE      -0.523100
     17 C8         -67.8380   -35.0550    21.3070 ca         1 PVE      -0.147000
     18 C9         -67.9890   -33.6440    21.3070 ca         1 PVE       0.112700
     19 N1         -69.1930   -33.0110    21.7040 na         1 PVE      -0.025700
     20 C14        -70.3890   -33.8160    22.1430 c6         1 PVE      -0.112700
     21 C15        -71.1540   -34.4400    20.9430 c          1 PVE       0.716000
     22 O16        -71.1260   -33.8360    19.8800 o          1 PVE      -0.687000
     23 C2         -69.2780   -31.5990    21.6530 ca         1 PVE       0.139800
     24 N11        -70.4330   -30.9550    22.1400 nu         1 PVE      -0.295800
     25 C12        -71.6890   -31.6480    22.4310 c6         1 PVE       0.056600
     26 C13        -71.3330   -33.0000    23.0700 c6         1 PVE      -0.101400
     27 OXT        -71.3230   -35.6490    20.9890 o          1 PVE      -0.687000
     28 H211       -68.8890   -25.4150    22.4510 hc         1 PVE       0.045200
     29 H212       -68.2370   -26.8150    23.4380 hc         1 PVE       0.045200
     30 H201       -68.6390   -26.9650    20.4450 hc         1 PVE       0.040700
     31 H202       -67.1280   -26.3090    21.1740 hc         1 PVE       0.040700
     32 H17        -69.1790   -29.0820    20.7340 hn         1 PVE       0.170000
     33 H4         -66.1440   -30.8630    20.4960 ha         1 PVE       0.125000
     34 H5         -64.8370   -32.8390    20.1750 ha         1 PVE       0.112000
     35 H25        -63.7190   -34.7450    19.8800 ho         1 PVE       0.471000
     36 H26        -65.5800   -37.1790    20.6150 ho         1 PVE       0.481000
     37 H8         -68.6430   -35.7170    21.6000 ha         1 PVE       0.169000
     38 H14        -70.0370   -34.6560    22.7550 h1         1 PVE       0.068700
     39 H131       -72.2470   -33.5720    23.2830 hc         1 PVE       0.064700
     40 H132       -70.8420   -32.8290    24.0380 hc         1 PVE       0.064700
     41 H11        -70.3500   -29.9620    22.4020 hn         1 PVE       0.443000
     42 H121       -72.3210   -31.0510    23.1040 h1         1 PVE       0.087700
     43 H122       -72.2520   -31.8150    21.5010 h1         1 PVE       0.087700
@<TRIPOS>BOND
     1     1     2 1   
     2     2     3 1   
     3     2     4 1   
     4     4     5 1   
     5     4    28 1   
     6     4    29 1   
     7     5     6 1   
     8     5    30 1   
     9     5    31 1   
    10     6     7 2   
    11     6     8 1   
    12     8     9 1   
    13     8    32 1   
    14     9    10 ar  
    15     9    23 ar  
    16    10    11 ar  
    17    10    33 1   
    18    11    12 ar  
    19    11    18 ar  
    20    12    13 ar  
    21    12    34 1   
    22    13    14 1   
    23    13    15 ar  
    24    14    35 1   
    25    15    16 1   
    26    15    17 ar  
    27    16    36 1   
    28    17    18 ar  
    29    17    37 1   
    30    18    19 2   
    31    19    20 1   
    32    19    23 1   
    33    20    21 1   
    34    20    26 1   
    35    20    38 1   
    36    21    22 1   
    37    21    27 1   
    38    23    24 1   
    39    24    25 1   
    40    24    41 1   
    41    25    26 1   
    42    25    42 1   
    43    25    43 1   
    44    26    39 1   
    45    26    40 1   
@<TRIPOS>SUBSTRUCTURE
     1 PVE         1 TEMP              0 ****  ****    0 ROOT
