@<TRIPOS>MOLECULE
PVF
   31    32     1     0     0
SMALL
abcg2


@<TRIPOS>ATOM
      1 C1          21.3700    14.0620    27.9130 ca         1 PVF       0.132000
      2 C2          22.5150    13.7840    27.1820 ca         1 PVF      -0.106500
      3 C3          22.5490    12.6350    26.3970 ca         1 PVF      -0.078500
      4 C4          20.2660    13.2190    27.8790 ca         1 PVF      -0.106500
      5 C5          20.3210    12.0720    27.1000 ca         1 PVF      -0.078500
      6 C6          21.4570    11.7720    26.3460 ca         1 PVF      -0.092300
      7 C7          21.4990    10.5340    25.5040 c3         1 PVF       0.211900
      8 C8          20.3700     9.6450    23.5780 ca         1 PVF       0.133100
      9 C9          19.3910     9.8290    22.5960 ca         1 PVF      -0.141000
     10 C10         19.1350     8.8450    21.6510 ca         1 PVF      -0.051300
     11 C18         19.8680     7.6540    21.6920 ca         1 PVF      -0.118000
     12 C19         20.8340     7.4700    22.6680 ca         1 PVF      -0.078000
     13 C20         21.0970     8.4570    23.6190 ca         1 PVF      -0.192000
     14 CL1         21.3110    15.5100    28.8980 cl         1 PVF      -0.211000
     15 O1          20.5350    10.6840    24.4460 os         1 PVF      -0.354100
     16 C11         18.1010     9.0810    20.5780 c3         1 PVF       0.193100
     17 N1          18.7550     9.3320    19.2810 n8         1 PVF      -0.996200
     18 H1          23.3640    14.4510    27.2210 ha         1 PVF       0.132000
     19 H2          23.4350    12.4160    25.8160 ha         1 PVF       0.122000
     20 H3          19.3840    13.4520    28.4600 ha         1 PVF       0.132000
     21 H4          19.4680    11.4070    27.0740 ha         1 PVF       0.122000
     22 H5          21.2440     9.6490    26.0920 h1         1 PVF       0.044700
     23 H6          22.4930    10.3890    25.0760 h1         1 PVF       0.044700
     24 H7          18.8310    10.7570    22.5890 ha         1 PVF       0.123000
     25 H8          19.6750     6.8800    20.9600 ha         1 PVF       0.123000
     26 H9          21.3990     6.5460    22.7040 ha         1 PVF       0.112000
     27 H10         21.8490     8.2850    24.3730 ha         1 PVF       0.114000
     28 H11         17.4430     9.9000    20.8900 h1         1 PVF       0.037200
     29 H12         17.4810     8.1890    20.4670 h1         1 PVF       0.037200
     30 H13         18.0470     9.4950    18.5710 hn         1 PVF       0.395000
     31 H14         19.2950    10.1900    19.3420 hn         1 PVF       0.395000
@<TRIPOS>BOND
     1     1     2 ar  
     2     1     4 ar  
     3     1    14 1   
     4     2     3 ar  
     5     2    18 1   
     6     3     6 ar  
     7     3    19 1   
     8     4     5 ar  
     9     4    20 1   
    10     5     6 ar  
    11     5    21 1   
    12     6     7 1   
    13     7    15 1   
    14     7    22 1   
    15     7    23 1   
    16     8     9 ar  
    17     8    13 ar  
    18     8    15 1   
    19     9    10 ar  
    20     9    24 1   
    21    10    11 ar  
    22    10    16 1   
    23    11    12 ar  
    24    11    25 1   
    25    12    13 ar  
    26    12    26 1   
    27    13    27 1   
    28    16    17 1   
    29    16    28 1   
    30    16    29 1   
    31    17    30 1   
    32    17    31 1   
@<TRIPOS>SUBSTRUCTURE
     1 PVF         1 TEMP              0 ****  ****    0 ROOT
