@<TRIPOS>MOLECULE
PVF
   31    32     1     0     0
SMALL
No Charge or Current Charge


@<TRIPOS>ATOM
      1 C1          21.3940    14.1610    27.8770 ca         1 PVF       0.132000
      2 C2          22.3260    13.9740    26.8430 ca         1 PVF      -0.106500
      3 C3          22.3340    12.7710    26.1140 ca         1 PVF      -0.078500
      4 C4          20.4700    13.1500    28.1840 ca         1 PVF      -0.106500
      5 C5          20.4770    11.9470    27.4560 ca         1 PVF      -0.078500
      6 C6          21.4100    11.7510    26.4180 ca         1 PVF      -0.092300
      7 C7          21.4180    10.4480    25.6290 c3         1 PVF       0.211900
      8 C8          20.3300     9.5760    23.5940 ca         1 PVF       0.133100
      9 C9          19.4480     9.8170    22.5280 ca         1 PVF      -0.141000
     10 C10         19.1920     8.8210    21.5650 ca         1 PVF      -0.051300
     11 C18         19.8310     7.5720    21.6810 ca         1 PVF      -0.118000
     12 C19         20.7150     7.3220    22.7450 ca         1 PVF      -0.078000
     13 C20         20.9660     8.3200    23.7020 ca         1 PVF      -0.192000
     14 Cl1         21.3840    15.6660    28.7870 cl         1 PVF      -0.211000
     15 O1          20.5360    10.5930    24.5020 os         1 PVF      -0.354100
     16 C11         18.2280     9.0890    20.4140 c3         1 PVF       0.193100
     17 N1          18.9330     9.5700    19.2090 n8         1 PVF      -0.996200
     18 H1          23.0390    14.7590    26.6070 ha         1 PVF       0.132000
     19 H2          23.0570    12.6320    25.3120 ha         1 PVF       0.122000
     20 H3          19.7490    13.2990    28.9840 ha         1 PVF       0.132000
     21 H4          19.7560    11.1680    27.6970 ha         1 PVF       0.122000
     22 H5          21.0860     9.6260    26.2770 h1         1 PVF       0.044700
     23 H6          22.4400    10.2290    25.2950 h1         1 PVF       0.044700
     24 H7          18.9610    10.7860    22.4500 ha         1 PVF       0.123000
     25 H8          19.6440     6.7940    20.9430 ha         1 PVF       0.123000
     26 H9          21.2050     6.3540    22.8260 ha         1 PVF       0.112000
     27 H10         21.6530     8.1000    24.5140 ha         1 PVF       0.114000
     28 H11         17.4900     9.8450    20.7180 h1         1 PVF       0.037200
     29 H12         17.6840     8.1670    20.1630 h1         1 PVF       0.037200
     30 H13         18.2380     9.8230    18.4970 hn         1 PVF       0.395000
     31 H14         19.3900    10.4610    19.4320 hn         1 PVF       0.395000
@<TRIPOS>BOND
     1     1     2 ar  
     2     1     4 ar  
     3     1    14 1   
     4     2     3 ar  
     5     2    18 1   
     6     3     6 ar  
     7     3    19 1   
     8     4     5 ar  
     9     4    20 1   
    10     5     6 ar  
    11     5    21 1   
    12     6     7 1   
    13     7    15 1   
    14     7    22 1   
    15     7    23 1   
    16     8     9 ar  
    17     8    13 ar  
    18     8    15 1   
    19     9    10 ar  
    20     9    24 1   
    21    10    11 ar  
    22    10    16 1   
    23    11    12 ar  
    24    11    25 1   
    25    12    13 ar  
    26    12    26 1   
    27    13    27 1   
    28    16    17 1   
    29    16    28 1   
    30    16    29 1   
    31    17    30 1   
    32    17    31 1   
@<TRIPOS>SUBSTRUCTURE
     1 PVF         1 TEMP              0 ****  ****    0 ROOT
