@<TRIPOS>MOLECULE
PVG
   81    84     1     0     0
SMALL
abcg2


@<TRIPOS>ATOM
      1 C32          4.8790     0.5400     2.0190 c3         1 PVG      -0.091100
      2 C31          5.0980    -0.9050     1.5660 c3         1 PVG      -0.030200
      3 C3           4.4210    -1.2140     0.2750 c2         1 PVG      -0.096400
      4 C2           4.9590    -1.5620    -0.9000 ce         1 PVG      -0.184400
      5 C21          6.3800    -1.7530    -1.2920 c3         1 PVG      -0.024900
      6 C1           3.8670    -1.7580    -1.8840 c          1 PVG       0.556200
      7 O1           3.9810    -2.0930    -3.0530 o          1 PVG      -0.565000
      8 N1           2.7140    -1.4880    -1.2320 ns         1 PVG      -0.501900
      9 C4           2.9210    -1.1520     0.1490 c5         1 PVG       0.126900
     10 C5           2.2020    -2.1140     1.1090 c3         1 PVG      -0.014100
     11 C6           0.7320    -2.1710     0.8740 cc         1 PVG      -0.160300
     12 N2          -0.0290    -1.0610     0.9010 na         1 PVG      -0.090000
     13 C7          -0.0930    -3.2550     0.5830 cd         1 PVG      -0.166300
     14 C41          0.3180    -4.6830     0.4420 c3         1 PVG      -0.008800
     15 C8          -1.4030    -2.7560     0.4410 cd         1 PVG      -0.024300
     16 C51         -2.6290    -3.5630     0.1720 c3         1 PVG      -0.015100
     17 C52         -3.2060    -4.1710     1.4490 c3         1 PVG      -0.199400
     18 C53         -4.4710    -5.0270     1.2600 c          1 PVG       0.718000
     19 O55         -4.9300    -5.5530     2.2950 o          1 PVG      -0.738500
     20 O54         -4.9400    -5.1250     0.1090 o          1 PVG      -0.738500
     21 C9          -1.3400    -1.3720     0.6400 cc         1 PVG      -0.215800
     22 C10         -2.3560    -0.3950     0.5660 ce         1 PVG       0.070800
     23 C11         -2.1690     0.9570     0.6830 cd         1 PVG      -0.020400
     24 N3          -0.9230     1.5080     0.8990 nd         1 PVG      -0.630300
     25 C12         -3.1670     2.0040     0.5780 cd         1 PVG      -0.009200
     26 C61         -4.6120     1.7930     0.2750 c3         1 PVG      -0.021200
     27 C62         -4.8570     1.5990    -1.2210 c3         1 PVG      -0.201400
     28 C63         -6.3170     1.3280    -1.6260 c          1 PVG       0.720000
     29 O65         -7.1780     1.3080    -0.7250 o          1 PVG      -0.738000
     30 O64         -6.5160     1.1510    -2.8460 o          1 PVG      -0.738000
     31 C13         -2.4860     3.1780     0.7310 cc         1 PVG      -0.289800
     32 C71         -2.9970     4.5770     0.6830 c3         1 PVG      -0.007900
     33 C14         -1.0930     2.8070     0.9030 cc         1 PVG       0.446900
     34 C15          0.0170     3.7150     1.0890 ce         1 PVG      -0.215600
     35 C16          1.2570     3.5290     0.5940 cd         1 PVG       0.016600
     36 C17          1.7570     2.6450    -0.4710 cd         1 PVG       0.006800
     37 C81          0.9360     1.8430    -1.4220 c3         1 PVG      -0.052900
     38 C18          3.0920     2.8160    -0.5580 cc         1 PVG      -0.232400
     39 C91          4.0530     2.2110    -1.5200 c3         1 PVG      -0.010200
     40 C92          4.3030     3.1120    -2.7300 c3         1 PVG      -0.083100
     41 C19          3.5060     3.8390     0.4260 c          1 PVG       0.560200
     42 O19          4.6300     4.2390     0.6670 o          1 PVG      -0.566000
     43 N4           2.3530     4.2680     1.0200 ns         1 PVG      -0.429100
     44 H1           5.2830     1.2450     1.2930 hc         1 PVG       0.040700
     45 H2           3.8200     0.7680     2.1520 hc         1 PVG       0.040700
     46 H3           5.3750     0.7200     2.9720 hc         1 PVG       0.040700
     47 H4           6.1660    -1.1030     1.4800 hc         1 PVG       0.046200
     48 H5           4.7220    -1.5830     2.3390 hc         1 PVG       0.046200
     49 H8           6.5590    -2.7740    -1.6350 hc         1 PVG       0.042033
     50 H9           6.6520    -1.0900    -2.1150 hc         1 PVG       0.042033
     51 H10          7.0610    -1.5550    -0.4670 hc         1 PVG       0.042033
     52 H11          1.8030    -1.5770    -1.6540 hn         1 PVG       0.352500
     53 H12          2.5860    -0.1250     0.3480 h1         1 PVG       0.078700
     54 H13          2.6270    -3.1120     1.0000 hc         1 PVG       0.059700
     55 H14          2.4020    -1.7940     2.1370 hc         1 PVG       0.059700
     56 H15          0.2430    -0.0990     1.0880 hn         1 PVG       0.385000
     57 H16         -0.1100    -5.3070     1.2290 hc         1 PVG       0.033367
     58 H17         -0.0100    -5.1030    -0.5110 hc         1 PVG       0.033367
     59 H18          1.4000    -4.7990     0.4890 hc         1 PVG       0.033367
     60 H19         -3.3880    -2.9490    -0.3170 hc         1 PVG       0.060700
     61 H20         -2.3930    -4.3600    -0.5370 hc         1 PVG       0.060700
     62 H21         -2.4440    -4.7810     1.9470 hc         1 PVG       0.018200
     63 H22         -3.4340    -3.3690     2.1610 hc         1 PVG       0.018200
     64 H24         -3.3610    -0.7570     0.3840 ha         1 PVG       0.231000
     65 H27         -4.9860     0.9240     0.8220 hc         1 PVG       0.057700
     66 H28         -5.1940     2.6460     0.6330 hc         1 PVG       0.057700
     67 H29         -4.5050     2.4830    -1.7630 hc         1 PVG       0.019700
     68 H30         -4.2360     0.7760    -1.5930 hc         1 PVG       0.019700
     69 H32         -2.6810     5.1520     1.5560 hc         1 PVG       0.027367
     70 H33         -2.6290     5.1090    -0.1970 hc         1 PVG       0.027367
     71 H34         -4.0860     4.6060     0.6490 hc         1 PVG       0.027367
     72 H35         -0.1500     4.5740     1.7330 ha         1 PVG       0.177000
     73 H37          0.0180     2.3650    -1.6890 hc         1 PVG       0.061700
     74 H38          1.4970     1.6610    -2.3370 hc         1 PVG       0.061700
     75 H39          0.6380     0.8790    -1.0160 hc         1 PVG       0.061700
     76 H40          4.9990     2.0130    -1.0110 hc         1 PVG       0.051200
     77 H41          3.6790     1.2400    -1.8510 hc         1 PVG       0.051200
     78 H42          5.0100     2.6480    -3.4180 hc         1 PVG       0.032033
     79 H43          3.3770     3.2990    -3.2740 hc         1 PVG       0.032033
     80 H44          4.7150     4.0740    -2.4260 hc         1 PVG       0.032033
     81 H6           2.3390     4.8650     1.8320 hn         1 PVG       0.325500
@<TRIPOS>BOND
     1     1     2 1   
     2     1    44 1   
     3     1    45 1   
     4     1    46 1   
     5     2     3 1   
     6     2    47 1   
     7     2    48 1   
     8     3     4 2   
     9     3     9 1   
    10     4     5 1   
    11     4     6 1   
    12     5    49 1   
    13     5    50 1   
    14     5    51 1   
    15     6     7 2   
    16     6     8 1   
    17     8     9 1   
    18     8    52 1   
    19     9    10 1   
    20     9    53 1   
    21    10    11 1   
    22    10    54 1   
    23    10    55 1   
    24    11    12 1   
    25    11    13 2   
    26    12    21 1   
    27    12    56 1   
    28    13    14 1   
    29    13    15 1   
    30    14    57 1   
    31    14    58 1   
    32    14    59 1   
    33    15    16 1   
    34    15    21 2   
    35    16    17 1   
    36    16    60 1   
    37    16    61 1   
    38    17    18 1   
    39    17    62 1   
    40    17    63 1   
    41    18    19 1   
    42    18    20 1   
    43    21    22 1   
    44    22    23 2   
    45    22    64 1   
    46    23    24 1   
    47    23    25 1   
    48    24    33 2   
    49    25    26 1   
    50    25    31 2   
    51    26    27 1   
    52    26    65 1   
    53    26    66 1   
    54    27    28 1   
    55    27    67 1   
    56    27    68 1   
    57    28    29 1   
    58    28    30 1   
    59    31    32 1   
    60    31    33 1   
    61    32    69 1   
    62    32    70 1   
    63    32    71 1   
    64    33    34 1   
    65    34    35 2   
    66    34    72 1   
    67    35    36 1   
    68    35    43 1   
    69    36    37 1   
    70    36    38 2   
    71    37    73 1   
    72    37    74 1   
    73    37    75 1   
    74    38    39 1   
    75    38    41 1   
    76    39    40 1   
    77    39    76 1   
    78    39    77 1   
    79    40    78 1   
    80    40    79 1   
    81    40    80 1   
    82    41    42 2   
    83    41    43 1   
    84    43    81 1   
@<TRIPOS>SUBSTRUCTURE
     1 PVG         1 TEMP              0 ****  ****    0 ROOT
