@<TRIPOS>MOLECULE
PVG
   81    84     1     0     0
SMALL
No Charge or Current Charge


@<TRIPOS>ATOM
      1 C32          5.4030     0.3000     1.8070 c3         1 PVG      -0.091100
      2 C31          5.2690    -1.2080     1.5260 c3         1 PVG      -0.030200
      3 C3           4.4940    -1.4790     0.2510 c2         1 PVG      -0.096400
      4 C2           4.9800    -1.7530    -0.9730 ce         1 PVG      -0.184400
      5 C21          6.4410    -1.8630    -1.3790 c3         1 PVG      -0.024900
      6 C1           3.8990    -1.8390    -1.9550 c          1 PVG       0.556200
      7 O1           3.9790    -2.0730    -3.1510 o          1 PVG      -0.565000
      8 N1           2.7470    -1.5920    -1.2810 ns         1 PVG      -0.501900
      9 C4           2.9570    -1.3910     0.1650 c5         1 PVG       0.126900
     10 C5           2.2130    -2.4550     1.0110 c3         1 PVG      -0.014100
     11 C6           0.7090    -2.4170     0.8420 cc         1 PVG      -0.160300
     12 N2          -0.0390    -1.2470     0.8530 na         1 PVG      -0.090000
     13 C7          -0.1940    -3.4320     0.6400 cd         1 PVG      -0.166300
     14 C41          0.1330    -4.9050     0.5580 c3         1 PVG      -0.008800
     15 C8          -1.4940    -2.8630     0.5000 cd         1 PVG      -0.024300
     16 C51         -2.7680    -3.6350     0.2370 c3         1 PVG      -0.015100
     17 C52         -3.4790    -4.0660     1.5420 c3         1 PVG      -0.199400
     18 C53         -4.7330    -4.8900     1.2080 c          1 PVG       0.718000
     19 O55         -4.6110    -6.0990     1.0790 o          1 PVG      -0.738500
     20 O54         -5.7850    -4.2950     1.0370 o          1 PVG      -0.738500
     21 C9          -1.3840    -1.5000     0.6240 cc         1 PVG      -0.215800
     22 C10         -2.3760    -0.4220     0.5350 ce         1 PVG       0.070800
     23 C11         -2.1970     0.9500     0.5800 cd         1 PVG      -0.020400
     24 N3          -0.9420     1.5190     0.7300 nd         1 PVG      -0.630300
     25 C12         -3.2450     1.9250     0.4700 cd         1 PVG      -0.009200
     26 C61         -4.7290     1.6900     0.3010 c3         1 PVG      -0.021200
     27 C62         -5.1240     1.4370    -1.1740 c3         1 PVG      -0.201400
     28 C63         -6.6470     1.2590    -1.2860 c          1 PVG       0.720000
     29 O65         -7.3340     2.2550    -1.4510 o          1 PVG      -0.738000
     30 O64         -7.1060     0.1350    -1.1540 o          1 PVG      -0.738000
     31 C13         -2.5880     3.1240     0.5510 cc         1 PVG      -0.289800
     32 C71         -3.1460     4.5240     0.4830 c3         1 PVG      -0.007900
     33 C14         -1.2040     2.8130     0.7020 cc         1 PVG       0.446900
     34 C15         -0.1340     3.7940     0.8360 ce         1 PVG      -0.215600
     35 C16          1.1930     3.8440     0.4620 cd         1 PVG       0.016600
     36 C17          1.9080     2.9590    -0.4360 cd         1 PVG       0.006800
     37 C81          1.3550     1.8320    -1.2720 c3         1 PVG      -0.052900
     38 C18          3.2200     3.4040    -0.4450 cc         1 PVG      -0.232400
     39 C91          4.4220     2.8480    -1.1700 c3         1 PVG      -0.010200
     40 C92          4.6130     3.4680    -2.5660 c3         1 PVG      -0.083100
     41 C19          3.3570     4.6030     0.3930 c          1 PVG       0.560200
     42 O19          4.3360     5.2920     0.6330 o          1 PVG      -0.566000
     43 N4           2.0990     4.7910     0.8600 ns         1 PVG      -0.429100
     44 H1           5.9280     0.8000     0.9850 hc         1 PVG       0.040700
     45 H2           4.4160     0.7640     1.9200 hc         1 PVG       0.040700
     46 H3           5.9700     0.4690     2.7310 hc         1 PVG       0.040700
     47 H4           6.2720    -1.6470     1.4650 hc         1 PVG       0.046200
     48 H5           4.7780    -1.6910     2.3800 hc         1 PVG       0.046200
     49 H8           6.8330    -2.8650    -1.1690 hc         1 PVG       0.042033
     50 H9           6.5820    -1.6690    -2.4480 hc         1 PVG       0.042033
     51 H10          7.0630    -1.1410    -0.8360 hc         1 PVG       0.042033
     52 H11          1.8580    -1.6580    -1.7610 hn         1 PVG       0.352500
     53 H12          2.6250    -0.3950     0.4860 h1         1 PVG       0.078700
     54 H13          2.5950    -3.4480     0.7480 hc         1 PVG       0.059700
     55 H14          2.4520    -2.3120     2.0710 hc         1 PVG       0.059700
     56 H15          0.3250    -0.3060     0.9890 hn         1 PVG       0.385000
     57 H16         -0.7120    -5.5270     0.8760 hc         1 PVG       0.033367
     58 H17          0.3920    -5.1900    -0.4690 hc         1 PVG       0.033367
     59 H18          0.9810    -5.1630     1.2020 hc         1 PVG       0.033367
     60 H19         -3.4560    -3.0330    -0.3680 hc         1 PVG       0.060700
     61 H20         -2.5480    -4.5250    -0.3650 hc         1 PVG       0.060700
     62 H21         -2.7540    -4.6760     2.0930 hc         1 PVG       0.018200
     63 H22         -3.7520    -3.1350     2.0550 hc         1 PVG       0.018200
     64 H24         -3.4040    -0.7560     0.4040 ha         1 PVG       0.231000
     65 H27         -5.0510     0.8410     0.9170 hc         1 PVG       0.057700
     66 H28         -5.2880     2.5550     0.6770 hc         1 PVG       0.057700
     67 H29         -4.8000     2.3280    -1.7260 hc         1 PVG       0.019700
     68 H30         -4.6040     0.5190    -1.4740 hc         1 PVG       0.019700
     69 H32         -3.3200     4.9220     1.4900 hc         1 PVG       0.027367
     70 H33         -2.4570     5.2010    -0.0360 hc         1 PVG       0.027367
     71 H34         -4.0980     4.5480    -0.0600 hc         1 PVG       0.027367
     72 H35         -0.4410     4.6340     1.4540 ha         1 PVG       0.177000
     73 H37          0.3710     2.0900    -1.6800 hc         1 PVG       0.061700
     74 H38          2.0050     1.6080    -2.1250 hc         1 PVG       0.061700
     75 H39          1.2540     0.9140    -0.6890 hc         1 PVG       0.061700
     76 H40          5.3310     3.0160    -0.5790 hc         1 PVG       0.051200
     77 H41          4.3270     1.7600    -1.2720 hc         1 PVG       0.051200
     78 H42          5.4910     3.0350    -3.0600 hc         1 PVG       0.032033
     79 H43          3.7350     3.2810    -3.1960 hc         1 PVG       0.032033
     80 H44          4.7600     4.5520    -2.4900 hc         1 PVG       0.032033
     81 H6           1.9010     5.5620     1.4860 hn         1 PVG       0.325500
@<TRIPOS>BOND
     1     1     2 1   
     2     1    44 1   
     3     1    45 1   
     4     1    46 1   
     5     2     3 1   
     6     2    47 1   
     7     2    48 1   
     8     3     4 2   
     9     3     9 1   
    10     4     5 1   
    11     4     6 1   
    12     5    49 1   
    13     5    50 1   
    14     5    51 1   
    15     6     7 2   
    16     6     8 1   
    17     8     9 1   
    18     8    52 1   
    19     9    10 1   
    20     9    53 1   
    21    10    11 1   
    22    10    54 1   
    23    10    55 1   
    24    11    12 1   
    25    11    13 2   
    26    12    21 1   
    27    12    56 1   
    28    13    14 1   
    29    13    15 1   
    30    14    57 1   
    31    14    58 1   
    32    14    59 1   
    33    15    16 1   
    34    15    21 2   
    35    16    17 1   
    36    16    60 1   
    37    16    61 1   
    38    17    18 1   
    39    17    62 1   
    40    17    63 1   
    41    18    19 1   
    42    18    20 1   
    43    21    22 1   
    44    22    23 2   
    45    22    64 1   
    46    23    24 1   
    47    23    25 1   
    48    24    33 2   
    49    25    26 1   
    50    25    31 2   
    51    26    27 1   
    52    26    65 1   
    53    26    66 1   
    54    27    28 1   
    55    27    67 1   
    56    27    68 1   
    57    28    29 1   
    58    28    30 1   
    59    31    32 1   
    60    31    33 1   
    61    32    69 1   
    62    32    70 1   
    63    32    71 1   
    64    33    34 1   
    65    34    35 2   
    66    34    72 1   
    67    35    36 1   
    68    35    43 1   
    69    36    37 1   
    70    36    38 2   
    71    37    73 1   
    72    37    74 1   
    73    37    75 1   
    74    38    39 1   
    75    38    41 1   
    76    39    40 1   
    77    39    76 1   
    78    39    77 1   
    79    40    78 1   
    80    40    79 1   
    81    40    80 1   
    82    41    42 2   
    83    41    43 1   
    84    43    81 1   
@<TRIPOS>SUBSTRUCTURE
     1 PVG         1 TEMP              0 ****  ****    0 ROOT
