@<TRIPOS>MOLECULE
PVH
   24    24     1     0     0
SMALL
bcc


@<TRIPOS>ATOM
      1 N            0.2760    -1.6240    -0.8910 n8         1 PVH      -0.901800
      2 CA           0.7340    -0.3240    -0.4850 c3         1 PVH       0.115500
      3 C            2.2120    -0.2720    -0.1050 c          1 PVH       0.595100
      4 O            2.8970    -1.2430     0.0930 o          1 PVH      -0.504000
      5 CB          -0.0980     0.1840     0.7090 c3         1 PVH      -0.024100
      6 CG          -1.5530     0.1510     0.4230 cc         1 PVH      -0.032600
      7 ND1         -2.1570     0.9630    -0.5070 na         1 PVH      -0.119100
      8 CD2         -2.5430    -0.6220     0.9340 cd         1 PVH      -0.115300
      9 CE1         -3.4530     0.7030    -0.5680 cc         1 PVH      -0.020600
     10 NE2         -3.7030    -0.2560     0.3030 na         1 PVH      -0.111100
     11 OE           2.6490     0.9740    -0.0130 os         1 PVH      -0.425900
     12 CM           4.0160     1.1730     0.3560 c3         1 PVH       0.125700
     13 H            0.7800    -1.9360    -1.7100 hn         1 PVH       0.377300
     14 H2           0.4540    -2.3080    -0.1650 hn         1 PVH       0.377300
     15 HA           0.5950     0.3680    -1.3220 h1         1 PVH       0.080700
     16 HB2          0.0870    -0.4460     1.5810 hc         1 PVH       0.096200
     17 HB3          0.2040     1.1980     0.9770 hc         1 PVH       0.096200
     18 HD1         -1.6980     1.6690    -1.0660 hn         1 PVH       0.359700
     19 HD2         -2.5120    -1.3950     1.6810 h4         1 PVH       0.231000
     20 HE1         -4.1690     1.1880    -1.2060 h5         1 PVH       0.252000
     21 HE2         -4.6160    -0.6560     0.4680 hn         1 PVH       0.363700
     22 HM1          4.2220     0.7660     1.3450 h1         1 PVH       0.062033
     23 HM2          4.6910     0.7200    -0.3690 h1         1 PVH       0.062033
     24 HM3          4.1680     2.2480     0.3690 h1         1 PVH       0.062033
@<TRIPOS>BOND
     1     1     2 1   
     2     1    13 1   
     3     1    14 1   
     4     2     3 1   
     5     2     5 1   
     6     2    15 1   
     7     3     4 2   
     8     3    11 1   
     9     5     6 1   
    10     5    16 1   
    11     5    17 1   
    12     6     7 1   
    13     6     8 2   
    14     7     9 2   
    15     7    18 1   
    16     8    10 1   
    17     8    19 1   
    18     9    10 1   
    19     9    20 1   
    20    10    21 1   
    21    11    12 1   
    22    12    22 1   
    23    12    23 1   
    24    12    24 1   
@<TRIPOS>SUBSTRUCTURE
     1 PVH         1 TEMP              0 ****  ****    0 ROOT
