@<TRIPOS>MOLECULE
PVH
   24    24     1     0     0
SMALL
No Charge or Current Charge


@<TRIPOS>ATOM
      1 N            0.3320    -1.8640    -0.7870 n8         1 PVH      -0.901800
      2 CA           0.7540    -0.4720    -0.3950 c3         1 PVH       0.115500
      3 C            2.2710    -0.3070    -0.0340 c          1 PVH       0.595100
      4 O            3.0320    -1.2460     0.1800 o          1 PVH      -0.504000
      5 CB          -0.1460     0.0720     0.7470 c3         1 PVH      -0.024100
      6 CG          -1.6110     0.1460     0.3890 cc         1 PVH      -0.032600
      7 ND1         -2.1750     1.1530    -0.4010 na         1 PVH      -0.119100
      8 CD2         -2.6300    -0.7080     0.7670 cd         1 PVH      -0.115300
      9 CE1         -3.5360     0.9240    -0.5220 cc         1 PVH      -0.020600
     10 NE2         -3.7850    -0.2140     0.1980 na         1 PVH      -0.111100
     11 OE           2.6620     1.0100    -0.0540 os         1 PVH      -0.425900
     12 CM           4.0400     1.3150     0.2360 c3         1 PVH       0.125700
     13 H            0.8980    -2.1770    -1.5850 hn         1 PVH       0.377300
     14 H2           0.5960    -2.5180    -0.0400 hn         1 PVH       0.377300
     15 HA           0.5940     0.1750    -1.2690 h1         1 PVH       0.080700
     16 HB2         -0.0140    -0.5540     1.6380 hc         1 PVH       0.096200
     17 HB3          0.2000     1.0730     1.0320 hc         1 PVH       0.096200
     18 HD1         -1.6720     1.9290    -0.8190 hn         1 PVH       0.359700
     19 HD2         -2.6060    -1.6050     1.3790 h4         1 PVH       0.231000
     20 HE1         -4.2570     1.5240    -1.0720 h5         1 PVH       0.252000
     21 HE2         -4.7020    -0.6400     0.3010 hn         1 PVH       0.363700
     22 HM1          4.3140     0.9740     1.2430 h1         1 PVH       0.062033
     23 HM2          4.7100     0.8340    -0.4880 h1         1 PVH       0.062033
     24 HM3          4.2100     2.3980     0.1880 h1         1 PVH       0.062033
@<TRIPOS>BOND
     1     1     2 1   
     2     1    13 1   
     3     1    14 1   
     4     2     3 1   
     5     2     5 1   
     6     2    15 1   
     7     3     4 2   
     8     3    11 1   
     9     5     6 1   
    10     5    16 1   
    11     5    17 1   
    12     6     7 1   
    13     6     8 2   
    14     7     9 2   
    15     7    18 1   
    16     8    10 1   
    17     8    19 1   
    18     9    10 1   
    19     9    20 1   
    20    10    21 1   
    21    11    12 1   
    22    12    22 1   
    23    12    23 1   
    24    12    24 1   
@<TRIPOS>SUBSTRUCTURE
     1 PVH         1 TEMP              0 ****  ****    0 ROOT
