@<TRIPOS>MOLECULE
PVI
   22    22     1     0     0
SMALL
No Charge or Current Charge


@<TRIPOS>ATOM
      1 CAC         -0.7310    57.2310    19.1490 c6         1 PVI       0.199700
      2 CAD         -1.2640    57.0110    17.7470 c2         1 PVI      -0.265200
      3 CAE         -1.9090    55.8810    17.3340 ce         1 PVI      -0.165400
      4 CAG         -2.4540    55.7230    15.9250 c          1 PVI       0.711200
      5 OAH         -2.9980    54.6730    15.6160 o          1 PVI      -0.722000
      6 OAI         -2.3250    56.6520    15.1390 o          1 PVI      -0.722000
      7 CAF         -2.1070    54.6920    18.3010 c6         1 PVI      -0.032200
      8 CAA         -1.8800    55.0670    19.7870 c6         1 PVI       0.140300
      9 OAL         -1.8080    53.8880    20.5980 oh         1 PVI      -0.670000
     10 CAB         -0.5690    55.8870    19.9350 c6         1 PVI       0.096300
     11 OAK         -0.2710    56.1160    21.3320 oh         1 PVI      -0.684000
     12 N            0.5330    57.9890    19.0730 n8         1 PVI      -0.983200
     13 H1          -1.4560    57.8610    19.6900 h1         1 PVI       0.058700
     14 H2          -1.1280    57.8500    17.0630 ha         1 PVI       0.209000
     15 H4          -3.1190    54.2780    18.1950 hc         1 PVI       0.066200
     16 H5          -1.4140    53.8880    18.0140 hc         1 PVI       0.066200
     17 H6          -2.7190    55.6970    20.1200 h1         1 PVI       0.035700
     18 H7          -1.2930    54.1760    21.3870 ho         1 PVI       0.424000
     19 H8           0.2450    55.3080    19.4720 h1         1 PVI       0.038700
     20 H9           0.6830    56.3460    21.3870 ho         1 PVI       0.432000
     21 H10          0.8740    58.1530    20.0250 hn         1 PVI       0.383000
     22 H11          1.2470    57.3890    18.6480 hn         1 PVI       0.383000
@<TRIPOS>BOND
     1     1     2 1   
     2     1    10 1   
     3     1    12 1   
     4     1    13 1   
     5     2     3 2   
     6     2    14 1   
     7     3     4 1   
     8     3     7 1   
     9     4     5 1   
    10     4     6 1   
    11     7     8 1   
    12     7    15 1   
    13     7    16 1   
    14     8     9 1   
    15     8    10 1   
    16     8    17 1   
    17     9    18 1   
    18    10    11 1   
    19    10    19 1   
    20    11    20 1   
    21    12    21 1   
    22    12    22 1   
@<TRIPOS>SUBSTRUCTURE
     1 PVI         1 TEMP              0 ****  ****    0 ROOT
