@<TRIPOS>MOLECULE
PVI
   22    22     1     0     0
SMALL
abcg2


@<TRIPOS>ATOM
      1 CAC         -0.7110    57.2730    19.1200 c6         1 PVI       0.199700
      2 CAD         -1.3220    57.0180    17.7740 c2         1 PVI      -0.265200
      3 CAE         -1.9030    55.8770    17.4000 ce         1 PVI      -0.165400
      4 CAG         -2.4470    55.7040    15.9840 c          1 PVI       0.711200
      5 OAH         -2.8880    54.5690    15.7100 o          1 PVI      -0.722000
      6 OAI         -2.4010    56.6880    15.2200 o          1 PVI      -0.722000
      7 CAF         -2.0170    54.7120    18.3440 c6         1 PVI      -0.032200
      8 CAA         -1.7580    55.1110    19.7860 c6         1 PVI       0.140300
      9 OAL         -1.6570    53.9280    20.5540 oh         1 PVI      -0.670000
     10 CAB         -0.4930    55.9600    19.8660 c6         1 PVI       0.096300
     11 OAK         -0.1380    56.2710    21.1980 oh         1 PVI      -0.684000
     12 N            0.4860    58.0920    18.9700 n8         1 PVI      -0.983200
     13 H1          -1.4220    57.8710    19.7090 h1         1 PVI       0.058700
     14 H2          -1.2670    57.8400    17.0690 ha         1 PVI       0.209000
     15 H4          -3.0060    54.2580    18.2590 hc         1 PVI       0.066200
     16 H5          -1.3050    53.9310    18.0530 hc         1 PVI       0.066200
     17 H6          -2.6020    55.7240    20.1410 h1         1 PVI       0.035700
     18 H7          -1.7260    54.1620    21.4840 ho         1 PVI       0.424000
     19 H8           0.3230    55.4130    19.3660 h1         1 PVI       0.038700
     20 H9           0.3190    55.5180    21.5820 ho         1 PVI       0.432000
     21 H10          0.8830    58.2710    19.8850 hn         1 PVI       0.383000
     22 H11          1.1890    57.5660    18.4640 hn         1 PVI       0.383000
@<TRIPOS>BOND
     1     1     2 1   
     2     1    10 1   
     3     1    12 1   
     4     1    13 1   
     5     2     3 2   
     6     2    14 1   
     7     3     4 1   
     8     3     7 1   
     9     4     5 1   
    10     4     6 1   
    11     7     8 1   
    12     7    15 1   
    13     7    16 1   
    14     8     9 1   
    15     8    10 1   
    16     8    17 1   
    17     9    18 1   
    18    10    11 1   
    19    10    19 1   
    20    11    20 1   
    21    12    21 1   
    22    12    22 1   
@<TRIPOS>SUBSTRUCTURE
     1 PVI         1 TEMP              0 ****  ****    0 ROOT
