@<TRIPOS>MOLECULE
PVJ
   68    72     1     0     0
SMALL
No Charge or Current Charge


@<TRIPOS>ATOM
      1 N            1.9020    -4.1220    -0.8090 n7         1 PVJ      -0.878400
      2 C            0.8640    -4.3810    -1.8230 c6         1 PVJ       0.173800
      3 O           -3.2620    -0.4430     0.6480 os         1 PVJ      -0.309100
      4 C1           1.9670    -2.7270    -0.3180 c6         1 PVJ       0.268500
      5 C10         -1.6440     1.9860     0.8750 ca         1 PVJ       0.129100
      6 C11         -1.7850     2.1640    -0.5130 ca         1 PVJ      -0.241000
      7 C12         -2.5190     3.2520    -1.0100 ca         1 PVJ       0.227000
      8 C13         -3.1110     4.1810    -0.1300 ca         1 PVJ      -0.195600
      9 C14         -2.9490     4.0050     1.2610 ca         1 PVJ      -0.049000
     10 C15         -2.2180     2.9120     1.7570 ca         1 PVJ      -0.178000
     11 C16          2.7010    -1.8540    -1.3800 c3         1 PVJ      -0.129100
     12 C17          2.8050    -2.7680     1.0020 c3         1 PVJ      -0.142400
     13 C18          4.2850    -3.1250     0.8120 c          1 PVJ       0.605100
     14 C2           0.5500    -2.1320    -0.0620 ca         1 PVJ      -0.113300
     15 C21          6.5230    -2.0800     0.9330 cc         1 PVJ       0.539300
     16 C23          8.5080    -1.0920     1.0540 cd         1 PVJ       0.303900
     17 C24          8.9160    -2.3530     0.6890 cc         1 PVJ      -0.324000
     18 C25         -4.4960    -1.0230     0.1890 c3         1 PVJ       0.167600
     19 C26         -5.6590    -0.0450     0.5170 c6         1 PVJ       0.163300
     20 C28         -6.4760     2.1670    -0.0630 c6         1 PVJ       0.144600
     21 C29         -7.9140     1.6430    -0.2980 c6         1 PVJ      -0.113400
     22 C3          -0.6220    -2.8090    -0.4870 ca         1 PVJ      -0.032300
     23 C30         -8.1730     0.3610     0.5330 c6         1 PVJ      -0.073400
     24 C31         -7.0550    -0.6830     0.2910 c6         1 PVJ      -0.107400
     25 C32         -3.8840     5.3590    -0.6510 c          1 PVJ       0.719600
     26 C4          -0.5280    -4.1510    -1.2110 c6         1 PVJ      -0.031100
     27 C5           0.4080    -0.8660     0.5520 ca         1 PVJ      -0.094000
     28 C6          -0.8590    -0.3040     0.7740 ca         1 PVJ       0.092100
     29 C7          -2.0250    -1.0050     0.3910 ca         1 PVJ       0.142100
     30 C8          -1.8940    -2.2560    -0.2480 ca         1 PVJ      -0.199000
     31 F           -2.6100     3.4080    -2.3500 f          1 PVJ      -0.171000
     32 N20          5.1580    -2.0860     1.0240 ns         1 PVJ      -0.471400
     33 N22          7.1350    -0.9390     1.1920 nd         1 PVJ      -0.708000
     34 O19          4.6570    -4.2520     0.5240 o          1 PVJ      -0.584100
     35 O27         -5.5220     1.1180    -0.3360 os         1 PVJ      -0.429000
     36 O33         -4.7050     5.1810    -1.5380 o          1 PVJ      -0.714500
     37 O34         -3.7040     6.4400    -0.1100 o          1 PVJ      -0.714500
     38 O9          -0.9270     0.9290     1.3920 os         1 PVJ      -0.254200
     39 S            7.5600    -3.4250     0.4990 ss         1 PVJ       0.048600
     40 H1           2.8240    -4.3870    -1.1730 hn         1 PVJ       0.431000
     41 H3           1.0080    -3.7220    -2.6910 h1         1 PVJ       0.031200
     42 H4           0.9420    -5.4200    -2.1750 h1         1 PVJ       0.031200
     43 H5          -1.3270     1.4670    -1.2080 ha         1 PVJ       0.115000
     44 H6          -3.3930     4.7150     1.9570 ha         1 PVJ       0.132000
     45 H7          -2.1000     2.7810     2.8300 ha         1 PVJ       0.106000
     46 H8           2.0810    -1.7100    -2.2730 hc         1 PVJ       0.044700
     47 H9           2.9300    -0.8570    -0.9860 hc         1 PVJ       0.044700
     48 H10          3.6450    -2.3050    -1.7090 hc         1 PVJ       0.044700
     49 H11          2.7540    -1.7980     1.5030 hc         1 PVJ       0.080200
     50 H12          2.3640    -3.5150     1.6720 hc         1 PVJ       0.080200
     51 H13          9.1610    -0.2460     1.2330 h4         1 PVJ       0.036100
     52 H14          9.9210    -2.7140     0.5210 h4         1 PVJ       0.154000
     53 H15         -4.4720    -1.1950    -0.8950 h1         1 PVJ       0.037700
     54 H16         -4.6770    -1.9810     0.6930 h1         1 PVJ       0.037700
     55 H17         -5.5650     0.2670     1.5680 h1         1 PVJ       0.046700
     56 H18         -6.2730     3.0190    -0.7270 h1         1 PVJ       0.076700
     57 H19         -6.3550     2.5090     0.9750 h1         1 PVJ       0.076700
     58 H20         -8.6440     2.4190    -0.0340 hc         1 PVJ       0.049700
     59 H21         -8.0550     1.4290    -1.3660 hc         1 PVJ       0.049700
     60 H22         -8.2120     0.6170     1.6010 hc         1 PVJ       0.032700
     61 H23         -9.1530    -0.0660     0.2760 hc         1 PVJ       0.032700
     62 H24         -7.1250    -1.0720    -0.7340 hc         1 PVJ       0.038200
     63 H25         -7.1920    -1.5400     0.9650 hc         1 PVJ       0.038200
     64 H26         -1.2860    -4.2130    -2.0030 hc         1 PVJ       0.052200
     65 H27         -0.7510    -4.9580    -0.5010 hc         1 PVJ       0.052200
     66 H28          1.2810    -0.2930     0.8500 ha         1 PVJ       0.121000
     67 H29         -2.7710    -2.8130    -0.5660 ha         1 PVJ       0.113000
     68 H30          4.7370    -1.2060     1.2770 hn         1 PVJ       0.345500
@<TRIPOS>BOND
     1     1     2 1   
     2     1     4 1   
     3     1    40 1   
     4     2    26 1   
     5     2    41 1   
     6     2    42 1   
     7     3    18 1   
     8     3    29 1   
     9     4    11 1   
    10     4    12 1   
    11     4    14 1   
    12     5     6 ar  
    13     5    10 ar  
    14     5    38 1   
    15     6     7 ar  
    16     6    43 1   
    17     7     8 ar  
    18     7    31 1   
    19     8     9 ar  
    20     8    25 1   
    21     9    10 ar  
    22     9    44 1   
    23    10    45 1   
    24    11    46 1   
    25    11    47 1   
    26    11    48 1   
    27    12    13 1   
    28    12    49 1   
    29    12    50 1   
    30    13    32 1   
    31    13    34 2   
    32    14    22 ar  
    33    14    27 ar  
    34    15    32 1   
    35    15    33 2   
    36    15    39 1   
    37    16    17 2   
    38    16    33 1   
    39    16    51 1   
    40    17    39 1   
    41    17    52 1   
    42    18    19 1   
    43    18    53 1   
    44    18    54 1   
    45    19    24 1   
    46    19    35 1   
    47    19    55 1   
    48    20    21 1   
    49    20    35 1   
    50    20    56 1   
    51    20    57 1   
    52    21    23 1   
    53    21    58 1   
    54    21    59 1   
    55    22    26 1   
    56    22    30 ar  
    57    23    24 1   
    58    23    60 1   
    59    23    61 1   
    60    24    62 1   
    61    24    63 1   
    62    25    36 1   
    63    25    37 1   
    64    26    64 1   
    65    26    65 1   
    66    27    28 ar  
    67    27    66 1   
    68    28    29 ar  
    69    28    38 1   
    70    29    30 ar  
    71    30    67 1   
    72    32    68 1   
@<TRIPOS>SUBSTRUCTURE
     1 PVJ         1 TEMP              0 ****  ****    0 ROOT
