@<TRIPOS>MOLECULE
PVJ
   68    72     1     0     0
SMALL
bcc


@<TRIPOS>ATOM
      1 N            1.8280    -3.9530    -0.8250 n7         1 PVJ      -0.823200
      2 C            0.7880    -4.2120    -1.7980 c6         1 PVJ       0.173800
      3 O           -3.2850    -0.6340     1.0060 os         1 PVJ      -0.285900
      4 C1           1.8780    -2.5850    -0.3320 c6         1 PVJ       0.268500
      5 C10         -1.7390     1.8120     1.0260 ca         1 PVJ       0.129100
      6 C11         -1.9290     1.8900    -0.3430 ca         1 PVJ      -0.259000
      7 C12         -2.6120     2.9770    -0.8570 ca         1 PVJ       0.191900
      8 C13         -3.0870     4.0240    -0.0800 ca         1 PVJ      -0.195600
      9 C14         -2.8290     3.9220     1.2880 ca         1 PVJ      -0.067000
     10 C15         -2.1810     2.8400     1.8510 ca         1 PVJ      -0.196000
     11 C16          2.4900    -1.6110    -1.3550 c3         1 PVJ      -0.129100
     12 C17          2.7190    -2.5900     0.9700 c3         1 PVJ      -0.142400
     13 C18          4.1780    -2.8850     0.7340 c          1 PVJ       0.672100
     14 C2           0.4670    -2.1160     0.0100 ca         1 PVJ      -0.113300
     15 C21          6.3930    -1.9080     0.8420 cc         1 PVJ       0.539300
     16 C23          8.4570    -1.1890     0.8770 cd         1 PVJ       0.369200
     17 C24          8.6990    -2.4290     0.3910 cc         1 PVJ      -0.262400
     18 C25         -4.4790    -1.1420     0.4370 c3         1 PVJ       0.144400
     19 C26         -5.5550    -0.0890     0.5690 c6         1 PVJ       0.140100
     20 C28         -6.0890     2.0790    -0.1640 c6         1 PVJ       0.121400
     21 C29         -7.4820     1.6720    -0.6150 c6         1 PVJ      -0.113400
     22 C3          -0.6630    -2.8530    -0.3300 ca         1 PVJ      -0.032300
     23 C30         -7.9640     0.4710     0.1930 c6         1 PVJ      -0.073400
     24 C31         -6.9190    -0.6410     0.1660 c6         1 PVJ      -0.107400
     25 C32         -3.8750     5.2130    -0.6120 c          1 PVJ       0.930200
     26 C4          -0.5450    -4.1490    -1.0820 c6         1 PVJ      -0.031100
     27 C5           0.2860    -0.8820     0.6400 ca         1 PVJ      -0.112000
     28 C6          -0.9670    -0.4130     0.9600 ca         1 PVJ       0.092100
     29 C7          -2.1090    -1.1670     0.6510 ca         1 PVJ       0.142100
     30 C8          -1.9350    -2.3760    -0.0000 ca         1 PVJ      -0.217000
     31 F           -2.7690     2.9880    -2.1890 f          1 PVJ      -0.135900
     32 N20          5.0280    -1.8580     1.0080 ns         1 PVJ      -0.538400
     33 N22          7.1460    -0.8960     1.1310 nd         1 PVJ      -0.708000
     34 O19          4.6040    -3.9490     0.3180 o          1 PVJ      -0.584100
     35 O27         -5.1860     0.9980    -0.2450 os         1 PVJ      -0.382600
     36 O33         -4.4310     5.0830    -1.7180 o          1 PVJ      -0.819800
     37 O34         -3.9130     6.2140     0.1290 o          1 PVJ      -0.819800
     38 O9          -1.0930     0.7750     1.6290 os         1 PVJ      -0.254200
     39 S            7.2200    -3.3000     0.2350 ss         1 PVJ      -0.096300
     40 H1           2.7310    -4.2150    -1.1940 hn         1 PVJ       0.375800
     41 H3           0.7840    -3.5090    -2.6460 h1         1 PVJ       0.031200
     42 H4           0.9480    -5.2070    -2.2150 h1         1 PVJ       0.031200
     43 H5          -1.5770     1.1170    -1.0150 ha         1 PVJ       0.133000
     44 H6          -3.1680     4.7230     1.9320 ha         1 PVJ       0.150000
     45 H7          -2.0210     2.7840     2.9210 ha         1 PVJ       0.124000
     46 H8           1.8700    -1.5550    -2.2490 hc         1 PVJ       0.044700
     47 H9           2.5790    -0.6000    -0.9550 hc         1 PVJ       0.044700
     48 H10          3.4860    -1.9360    -1.6660 hc         1 PVJ       0.044700
     49 H11          2.6200    -1.6360     1.4900 hc         1 PVJ       0.080200
     50 H12          2.3160    -3.3590     1.6320 hc         1 PVJ       0.080200
     51 H13          9.2130    -0.4420     1.0700 h4         1 PVJ       0.036100
     52 H14          9.6440    -2.8730     0.1250 h4         1 PVJ       0.172000
     53 H15         -4.3320    -1.3840    -0.6220 h1         1 PVJ       0.037700
     54 H16         -4.7880    -2.0580     0.9520 h1         1 PVJ       0.037700
     55 H17         -5.6120     0.2330     1.6230 h1         1 PVJ       0.046700
     56 H18         -5.6810     2.8770    -0.7850 h1         1 PVJ       0.076700
     57 H19         -6.1320     2.4610     0.8680 h1         1 PVJ       0.076700
     58 H20         -8.1650     2.5170    -0.5010 hc         1 PVJ       0.049700
     59 H21         -7.4620     1.4190    -1.6800 hc         1 PVJ       0.049700
     60 H22         -8.1370     0.7790     1.2290 hc         1 PVJ       0.032700
     61 H23         -8.9200     0.1050    -0.1870 hc         1 PVJ       0.032700
     62 H24         -6.8560    -1.0670    -0.8420 hc         1 PVJ       0.038200
     63 H25         -7.2030    -1.4530     0.8390 hc         1 PVJ       0.038200
     64 H26         -1.3680    -4.2430    -1.7930 hc         1 PVJ       0.052200
     65 H27         -0.6250    -4.9930    -0.3900 hc         1 PVJ       0.052200
     66 H28          1.1340    -0.2540     0.8890 ha         1 PVJ       0.139000
     67 H29         -2.7930    -2.9810    -0.2660 ha         1 PVJ       0.131000
     68 H30          4.6680    -0.9860     1.3680 hn         1 PVJ       0.345500
@<TRIPOS>BOND
     1     1     2 1   
     2     1     4 1   
     3     1    40 1   
     4     2    26 1   
     5     2    41 1   
     6     2    42 1   
     7     3    18 1   
     8     3    29 1   
     9     4    11 1   
    10     4    12 1   
    11     4    14 1   
    12     5     6 ar  
    13     5    10 ar  
    14     5    38 1   
    15     6     7 ar  
    16     6    43 1   
    17     7     8 ar  
    18     7    31 1   
    19     8     9 ar  
    20     8    25 1   
    21     9    10 ar  
    22     9    44 1   
    23    10    45 1   
    24    11    46 1   
    25    11    47 1   
    26    11    48 1   
    27    12    13 1   
    28    12    49 1   
    29    12    50 1   
    30    13    32 1   
    31    13    34 2   
    32    14    22 ar  
    33    14    27 ar  
    34    15    32 1   
    35    15    33 2   
    36    15    39 1   
    37    16    17 2   
    38    16    33 1   
    39    16    51 1   
    40    17    39 1   
    41    17    52 1   
    42    18    19 1   
    43    18    53 1   
    44    18    54 1   
    45    19    24 1   
    46    19    35 1   
    47    19    55 1   
    48    20    21 1   
    49    20    35 1   
    50    20    56 1   
    51    20    57 1   
    52    21    23 1   
    53    21    58 1   
    54    21    59 1   
    55    22    26 1   
    56    22    30 ar  
    57    23    24 1   
    58    23    60 1   
    59    23    61 1   
    60    24    62 1   
    61    24    63 1   
    62    25    36 1   
    63    25    37 1   
    64    26    64 1   
    65    26    65 1   
    66    27    28 ar  
    67    27    66 1   
    68    28    29 ar  
    69    28    38 1   
    70    29    30 ar  
    71    30    67 1   
    72    32    68 1   
@<TRIPOS>SUBSTRUCTURE
     1 PVJ         1 TEMP              0 ****  ****    0 ROOT
