@<TRIPOS>MOLECULE
PVK
   27    28     1     0     0
SMALL
abcg2


@<TRIPOS>ATOM
      1 C2         -23.0030    15.1530   -22.4580 c          1 PVK       0.608000
      2 C4         -21.0240    13.8680   -22.4640 cc         1 PVK       0.119400
      3 N1         -22.9240    15.0650   -21.0880 ns         1 PVK      -0.476500
      4 C6         -19.7540    13.0230   -20.7150 c5         1 PVK       0.249800
      5 C5         -20.9680    13.7850   -21.1250 cd         1 PVK      -0.392400
      6 C1         -21.9660    14.4140   -20.3180 c          1 PVK       0.621200
      7 C3         -19.8390    13.1730   -23.0550 c5         1 PVK       0.188800
      8 C8         -22.9940    13.4150   -25.1280 c3         1 PVK      -0.009500
      9 C9         -22.8440    13.2740   -26.6660 c          1 PVK       0.720000
     10 N2         -21.9850    14.5300   -23.1520 n          1 PVK      -0.265000
     11 N4         -22.7440    12.1570   -24.4480 n8         1 PVK      -1.029200
     12 O1         -22.0260    14.4210   -19.1010 o          1 PVK      -0.568000
     13 O2         -23.9090    15.7420   -23.0120 o          1 PVK      -0.551000
     14 O3         -22.9340    12.1240   -27.1360 o          1 PVK      -0.717500
     15 O4         -22.6720    14.3350   -27.2950 o          1 PVK      -0.717500
     16 O5         -19.1860    12.5950   -21.9460 os         1 PVK      -0.470000
     17 H1         -23.6700    15.5320   -20.5880 hn         1 PVK       0.329500
     18 H2         -19.9870    12.1510   -20.0950 h1         1 PVK       0.044700
     19 H3         -20.1400    12.4030   -23.7700 h1         1 PVK       0.084200
     20 H4         -21.0270    14.3110   -24.9680 h1         1 PVK       0.071700
     21 H5         -22.3280    15.4800   -24.9740 h1         1 PVK       0.071700
     22 H6         -24.0200    13.7720   -24.9550 h1         1 PVK       0.032700
     23 H7         -23.3820    12.0290   -23.6760 hn         1 PVK       0.399000
     24 H8         -22.9240    11.4140   -25.1130 hn         1 PVK       0.399000
     25 H9         -19.0440    13.6440   -20.1550 h1         1 PVK       0.044700
     26 H11        -19.1900    13.8870   -23.5780 h1         1 PVK       0.084200
     27 C7         -22.0410    14.4960   -24.6140 c3         1 PVK       0.127000
@<TRIPOS>BOND
     1     1     3 1   
     2     1    10 1   
     3     1    13 2   
     4     2     5 2   
     5     2     7 1   
     6     2    10 1   
     7     3     6 1   
     8     3    17 1   
     9     4     5 1   
    10     4    16 1   
    11     4    18 1   
    12     4    25 1   
    13     5     6 1   
    14     6    12 2   
    15     7    16 1   
    16     7    19 1   
    17     7    26 1   
    18     8     9 1   
    19     8    11 1   
    20     8    22 1   
    21     8    27 1   
    22     9    14 1   
    23     9    15 1   
    24    10    27 1   
    25    11    23 1   
    26    11    24 1   
    27    20    27 1   
    28    21    27 1   
@<TRIPOS>SUBSTRUCTURE
     1 PVK         1 TEMP              0 ****  ****    0 ROOT
