@<TRIPOS>MOLECULE
PVK
   27    28     1     0     0
SMALL
No Charge or Current Charge


@<TRIPOS>ATOM
      1 C2         -23.0330    15.1260   -22.4450 c          1 PVK       0.608000
      2 C4         -21.0110    13.8260   -22.3730 cc         1 PVK       0.119400
      3 N1         -22.9630    15.1260   -21.0740 ns         1 PVK      -0.476500
      4 C6         -19.7540    13.1260   -20.6020 c5         1 PVK       0.249800
      5 C5         -20.9880    13.8680   -21.0330 cd         1 PVK      -0.392400
      6 C1         -22.0240    14.5510   -20.2670 c          1 PVK       0.621200
      7 C3         -19.8370    13.1310   -22.9830 c5         1 PVK       0.188800
      8 C8         -22.8950    13.2840   -25.2480 c3         1 PVK      -0.009500
      9 C9         -23.0000    13.4700   -26.8180 c          1 PVK       0.720000
     10 N2         -22.0130    14.4240   -23.1330 n          1 PVK      -0.265000
     11 N4         -22.4840    11.9060   -24.7650 n8         1 PVK      -1.029200
     12 O1         -22.0600    14.6190   -19.0510 o          1 PVK      -0.568000
     13 O2         -23.9450    15.7050   -23.0130 o          1 PVK      -0.551000
     14 O3         -23.9920    13.0220   -27.3790 o          1 PVK      -0.717500
     15 O4         -22.1030    14.0520   -27.4150 o          1 PVK      -0.717500
     16 O5         -18.9860    12.8640   -21.8240 os         1 PVK      -0.470000
     17 H1         -23.7010    15.6220   -20.5990 hn         1 PVK       0.329500
     18 H2         -20.0290    12.1740   -20.1280 h1         1 PVK       0.044700
     19 H3         -20.1260    12.1840   -23.4570 h1         1 PVK       0.084200
     20 H4         -21.0040    14.3370   -25.0020 h1         1 PVK       0.071700
     21 H5         -22.4070    15.3850   -24.9760 h1         1 PVK       0.071700
     22 H6         -23.9170    13.4380   -24.8770 h1         1 PVK       0.032700
     23 H7         -22.6410    11.8400   -23.7520 hn         1 PVK       0.399000
     24 H8         -23.1320    11.2070   -25.1540 hn         1 PVK       0.399000
     25 H9         -19.1530    13.7240   -19.9030 h1         1 PVK       0.044700
     26 H11        -19.2990    13.7630   -23.7000 h1         1 PVK       0.084200
     27 C7         -22.0290    14.4170   -24.6220 c3         1 PVK       0.127000
@<TRIPOS>BOND
     1     1     3 1   
     2     1    10 1   
     3     1    13 2   
     4     2     5 2   
     5     2     7 1   
     6     2    10 1   
     7     3     6 1   
     8     3    17 1   
     9     4     5 1   
    10     4    16 1   
    11     4    18 1   
    12     4    25 1   
    13     5     6 1   
    14     6    12 2   
    15     7    16 1   
    16     7    19 1   
    17     7    26 1   
    18     8     9 1   
    19     8    11 1   
    20     8    22 1   
    21     8    27 1   
    22     9    14 1   
    23     9    15 1   
    24    10    27 1   
    25    11    23 1   
    26    11    24 1   
    27    20    27 1   
    28    21    27 1   
@<TRIPOS>SUBSTRUCTURE
     1 PVK         1 TEMP              0 ****  ****    0 ROOT
