@<TRIPOS>MOLECULE
PVL
    9     8     1     0     0
SMALL
No Charge or Current Charge


@<TRIPOS>ATOM
      1 O2           0.4830     1.3740    -0.2760 o          1 PVL      -0.460100
      2 C2           0.4680     0.1580    -0.0960 c          1 PVL       0.451100
      3 C3          -0.8750    -0.6460     0.1000 c          1 PVL       0.460900
      4 O3          -1.9880    -0.1190     0.0850 o          1 PVL      -0.453100
      5 C1           1.7680    -0.6530    -0.0490 c3         1 PVL      -0.198100
      6 H33         -0.7700    -1.7430     0.2560 h4         1 PVL      -0.000800
      7 H11          1.8070    -1.2100     0.8940 hc         1 PVL       0.066700
      8 H12          1.7110    -1.4600    -0.7900 hc         1 PVL       0.066700
      9 H13          2.6610    -0.0340    -0.1920 hc         1 PVL       0.066700
@<TRIPOS>BOND
     1     1     2 2   
     2     2     3 1   
     3     2     5 1   
     4     3     4 2   
     5     3     6 1   
     6     5     7 1   
     7     5     8 1   
     8     5     9 1   
@<TRIPOS>SUBSTRUCTURE
     1 PVL         1 TEMP              0 ****  ****    0 ROOT
