@<TRIPOS>MOLECULE
PVL
    9     8     1     0     0
SMALL
abcg2


@<TRIPOS>ATOM
      1 O2           0.4170     1.3330    -0.2880 o          1 PVL      -0.460100
      2 C2           0.4770     0.1450    -0.1000 c          1 PVL       0.451100
      3 C3          -0.8270    -0.6400     0.1060 c          1 PVL       0.460900
      4 O3          -1.8930    -0.0920     0.0650 o          1 PVL      -0.453100
      5 C1           1.7250    -0.6670    -0.0460 c3         1 PVL      -0.198100
      6 H33         -0.7240    -1.7220     0.2910 h4         1 PVL      -0.000800
      7 H11          1.7700    -1.2180     0.8960 hc         1 PVL       0.066700
      8 H12          1.7050    -1.4190    -0.8390 hc         1 PVL       0.066700
      9 H13          2.6160    -0.0540    -0.1530 hc         1 PVL       0.066700
@<TRIPOS>BOND
     1     1     2 2   
     2     2     3 1   
     3     2     5 1   
     4     3     4 2   
     5     3     6 1   
     6     5     7 1   
     7     5     8 1   
     8     5     9 1   
@<TRIPOS>SUBSTRUCTURE
     1 PVL         1 TEMP              0 ****  ****    0 ROOT
