@<TRIPOS>MOLECULE
PVM
   89    95     1     0     0
SMALL
bcc


@<TRIPOS>ATOM
      1 N            4.8330     3.1690    -0.8670 n7         1 PVM      -0.797200
      2 C            3.9970     3.9130     0.0590 c6         1 PVM       0.155800
      3 O            0.3920    -0.9270     1.3060 os         1 PVM      -0.290900
      4 C1           5.0620     1.7850    -0.4620 c6         1 PVM       0.253500
      5 C10          6.7810     1.7550    -2.3340 c          1 PVM       0.688100
      6 C13          7.4440     3.1060    -4.2330 cc         1 PVM       0.541300
      7 C14          9.3540     4.2540    -5.1430 cc         1 PVM      -0.263400
      8 C15          8.2120     4.3420    -5.8640 cd         1 PVM       0.366200
      9 C17          5.6060     1.0490    -1.7070 c3         1 PVM      -0.148400
     10 C18          6.0800     1.7520     0.6850 c3         1 PVM      -0.080100
     11 C19          2.6000    -2.9010     1.9160 ca         1 PVM       0.120100
     12 C2           3.7840     1.0920     0.0070 ca         1 PVM      -0.142300
     13 C20          2.8290    -2.2310     3.1110 ca         1 PVM      -0.241000
     14 C21          2.8340    -2.9550     4.2920 ca         1 PVM      -0.062000
     15 C22          2.6230    -4.3320     4.3500 ca         1 PVM      -0.187600
     16 C23          2.4030    -4.9530     3.1240 ca         1 PVM       0.184900
     17 C24          2.3860    -4.2720     1.9210 ca         1 PVM      -0.241000
     18 C25         -0.8130    -0.2490     1.5820 c3         1 PVM       0.121400
     19 C26         -1.8000    -1.3130     2.0340 c3         1 PVM       0.041300
     20 C28         -4.1450    -0.6580     1.4350 cc         1 PVM      -0.196600
     21 C29         -5.0800     0.0670     2.1340 cd         1 PVM       0.231000
     22 C3           2.6380     1.8230     0.3090 ca         1 PVM      -0.045300
     23 C32         -6.4270     0.4620     1.7430 cd         1 PVM       0.338600
     24 C33         -7.2500     1.2390     2.6110 cd         1 PVM      -0.166600
     25 C34         -8.4930     1.5900     2.2170 cc         1 PVM      -0.167400
     26 C35         -8.9660     1.1590     0.9110 c          1 PVM       0.676700
     27 C38         -9.4280     2.3970     3.0500 c3         1 PVM      -0.039900
     28 C4           2.5990     3.3210     0.1610 c6         1 PVM      -0.073100
     29 C40         -8.4170    -0.0560    -1.1130 ca         1 PVM       0.012600
     30 C41         -8.5970     0.8290    -2.1690 ca         1 PVM      -0.067500
     31 C42         -8.9320     0.3510    -3.4190 ca         1 PVM      -0.189500
     32 C43         -9.0920    -1.0220    -3.6320 ca         1 PVM       0.146100
     33 C44         -8.9060    -1.9060    -2.5710 ca         1 PVM      -0.189500
     34 C45         -8.5720    -1.4150    -1.3160 ca         1 PVM      -0.067500
     35 C47         -9.6350    -2.7670    -5.1440 c3         1 PVM       0.125700
     36 C48          2.6510    -5.0440     5.7000 c          1 PVM       0.931200
     37 C5           3.7550    -0.2930     0.1870 ca         1 PVM      -0.099000
     38 C6           2.6160    -0.9380     0.6120 ca         1 PVM       0.100100
     39 C7           1.4540    -0.2110     0.8960 ca         1 PVM       0.131100
     40 C8           1.4860     1.1650     0.7480 ca         1 PVM      -0.211000
     41 F            2.1930    -6.2740     3.0440 f          1 PVM      -0.129900
     42 N11          6.5210     2.3860    -3.5130 ns         1 PVM      -0.536400
     43 N16          7.1290     3.6890    -5.3450 nd         1 PVM      -0.718000
     44 N27         -3.0990    -0.7220     2.2710 na         1 PVM       0.104400
     45 N30         -4.5430     0.3940     3.3290 nd         1 PVM      -0.356000
     46 N31         -3.3510    -0.0820     3.4020 nc         1 PVM      -0.183800
     47 N36         -8.0490     0.4280     0.1780 n          1 PVM      -0.107000
     48 N37         -6.8280     0.0810     0.5730 nc         1 PVM      -0.431300
     49 O12          7.9020     1.7690    -1.8590 o          1 PVM      -0.571100
     50 O39        -10.0790     1.4040     0.4690 o          1 PVM      -0.612500
     51 O46         -9.4230    -1.3940    -4.8800 os         1 PVM      -0.317900
     52 O49          2.8940    -4.3210     6.6860 o          1 PVM      -0.813800
     53 O50          2.4320    -6.2670     5.7120 o          1 PVM      -0.813800
     54 O9           2.5980    -2.3050     0.6950 os         1 PVM      -0.253200
     55 S            9.0870     3.3030    -3.7300 ss         1 PVM      -0.082300
     56 H1           4.3700     3.1800    -1.7700 hn         1 PVM       0.345800
     57 H3           4.4770     3.9290     1.0400 h1         1 PVM       0.058700
     58 H4           3.9430     4.9500    -0.2740 h1         1 PVM       0.058700
     59 H5          10.3190     4.6860    -5.3570 h4         1 PVM       0.173000
     60 H6           8.1080     4.8810    -6.7950 h4         1 PVM       0.033100
     61 H7           5.9340     0.0440    -1.4380 hc         1 PVM       0.073200
     62 H8           4.7990     0.9350    -2.4350 hc         1 PVM       0.073200
     63 H9           5.6640     2.2000     1.5870 hc         1 PVM       0.050700
     64 H10          6.3540     0.7270     0.9350 hc         1 PVM       0.050700
     65 H11          6.9870     2.2930     0.4220 hc         1 PVM       0.050700
     66 H12          3.0070    -1.1640     3.1370 ha         1 PVM       0.121000
     67 H13          3.0150    -2.4330     5.2210 ha         1 PVM       0.155000
     68 H14          2.2090    -4.8060     0.9950 ha         1 PVM       0.137000
     69 H15         -0.6770     0.4990     2.3700 h1         1 PVM       0.047200
     70 H16         -1.1890     0.2630     0.6890 h1         1 PVM       0.047200
     71 H17         -1.9150    -2.0820     1.2720 h1         1 PVM       0.098200
     72 H18         -1.4680    -1.7890     2.9560 h1         1 PVM       0.098200
     73 H19         -4.1490    -1.1140     0.4600 h4         1 PVM       0.199000
     74 H20         -6.8650     1.5400     3.5770 ha         1 PVM       0.169000
     75 H21         -8.9730     2.6620     4.0020 hc         1 PVM       0.051700
     76 H22         -9.7120     3.3160     2.5360 hc         1 PVM       0.051700
     77 H23        -10.3490     1.8470     3.2490 hc         1 PVM       0.051700
     78 H24          2.0530     3.7640     0.9970 hc         1 PVM       0.052200
     79 H25          2.0330     3.5770    -0.7410 hc         1 PVM       0.052200
     80 H26         -8.4660     1.8930    -2.0200 ha         1 PVM       0.144500
     81 H27         -9.0700     1.0380    -4.2440 ha         1 PVM       0.142500
     82 H28         -9.0180    -2.9740    -2.6970 ha         1 PVM       0.142500
     83 H29         -8.4340    -2.1060    -0.4940 ha         1 PVM       0.144500
     84 H30         -8.7340    -3.3610    -4.9700 h1         1 PVM       0.041033
     85 H31        -10.4490    -3.1760    -4.5410 h1         1 PVM       0.041033
     86 H32         -9.9050    -2.8410    -6.1940 h1         1 PVM       0.041033
     87 H33          4.6300    -0.8990    -0.0150 ha         1 PVM       0.150000
     88 H34          0.6100     1.7610     0.9700 ha         1 PVM       0.133000
     89 H35          5.5940     2.3480    -3.9130 hn         1 PVM       0.337500
@<TRIPOS>BOND
     1     1     2 1   
     2     1     4 1   
     3     1    56 1   
     4     2    28 1   
     5     2    57 1   
     6     2    58 1   
     7     3    18 1   
     8     3    39 1   
     9     4     9 1   
    10     4    10 1   
    11     4    12 1   
    12     5     9 1   
    13     5    42 1   
    14     5    49 2   
    15     6    42 1   
    16     6    43 2   
    17     6    55 1   
    18     7     8 2   
    19     7    55 1   
    20     7    59 1   
    21     8    43 1   
    22     8    60 1   
    23     9    61 1   
    24     9    62 1   
    25    10    63 1   
    26    10    64 1   
    27    10    65 1   
    28    11    13 ar  
    29    11    17 ar  
    30    11    54 1   
    31    12    22 ar  
    32    12    37 ar  
    33    13    14 ar  
    34    13    66 1   
    35    14    15 ar  
    36    14    67 1   
    37    15    16 ar  
    38    15    36 1   
    39    16    17 ar  
    40    16    41 1   
    41    17    68 1   
    42    18    19 1   
    43    18    69 1   
    44    18    70 1   
    45    19    44 1   
    46    19    71 1   
    47    19    72 1   
    48    20    21 2   
    49    20    44 1   
    50    20    73 1   
    51    21    23 1   
    52    21    45 1   
    53    22    28 1   
    54    22    40 ar  
    55    23    24 1   
    56    23    48 2   
    57    24    25 2   
    58    24    74 1   
    59    25    26 1   
    60    25    27 1   
    61    26    47 1   
    62    26    50 2   
    63    27    75 1   
    64    27    76 1   
    65    27    77 1   
    66    28    78 1   
    67    28    79 1   
    68    29    30 ar  
    69    29    34 ar  
    70    29    47 1   
    71    30    31 ar  
    72    30    80 1   
    73    31    32 ar  
    74    31    81 1   
    75    32    33 ar  
    76    32    51 1   
    77    33    34 ar  
    78    33    82 1   
    79    34    83 1   
    80    35    51 1   
    81    35    84 1   
    82    35    85 1   
    83    35    86 1   
    84    36    52 1   
    85    36    53 1   
    86    37    38 ar  
    87    37    87 1   
    88    38    39 ar  
    89    38    54 1   
    90    39    40 ar  
    91    40    88 1   
    92    42    89 1   
    93    44    46 1   
    94    45    46 2   
    95    47    48 1   
@<TRIPOS>SUBSTRUCTURE
     1 PVM         1 TEMP              0 ****  ****    0 ROOT
