@<TRIPOS>MOLECULE
PVM
   89    95     1     0     0
SMALL
No Charge or Current Charge


@<TRIPOS>ATOM
      1 N            4.7710     3.1690    -1.1970 n7         1 PVM      -0.852400
      2 C            3.8990     3.9680    -0.3120 c6         1 PVM       0.155800
      3 O            0.4480    -0.9720     1.2970 os         1 PVM      -0.314100
      4 C1           5.1120     1.8310    -0.6620 c6         1 PVM       0.253500
      5 C10          6.9930     1.7360    -2.4650 c          1 PVM       0.621100
      6 C13          7.6470     2.9700    -4.5040 cc         1 PVM       0.541300
      7 C14          9.4050     4.1040    -5.7230 cc         1 PVM      -0.325000
      8 C15          8.1870     4.0660    -6.3580 cd         1 PVM       0.300900
      9 C17          5.7740     1.0460    -1.8400 c3         1 PVM      -0.148400
     10 C18          6.1280     1.9790     0.5120 c3         1 PVM      -0.080100
     11 C19          2.5600    -2.8450     2.1620 ca         1 PVM       0.120100
     12 C2           3.8480     1.0920    -0.1440 ca         1 PVM      -0.142300
     13 C20          2.6920    -2.0990     3.3480 ca         1 PVM      -0.223000
     14 C21          2.3470    -2.6720     4.5850 ca         1 PVM      -0.044000
     15 C22          1.8680    -3.9980     4.6450 ca         1 PVM      -0.187600
     16 C23          1.7580    -4.7420     3.4540 ca         1 PVM       0.220000
     17 C24          2.1050    -4.1690     2.2200 ca         1 PVM      -0.223000
     18 C25         -0.7960    -0.3320     1.6180 c3         1 PVM       0.144600
     19 C26         -1.7430    -1.4150     2.1600 c3         1 PVM       0.070600
     20 C28         -4.1570    -0.7360     1.7110 cc         1 PVM      -0.164000
     21 C29         -5.0920    -0.1930     2.5510 cd         1 PVM       0.165700
     22 C3           2.6330     1.7880     0.0830 ca         1 PVM      -0.045300
     23 C32         -6.4340     0.1380     2.1060 cd         1 PVM       0.338600
     24 C33         -7.3620     0.7090     3.0520 cd         1 PVM      -0.216600
     25 C34         -8.6480     1.0280     2.6420 cc         1 PVM      -0.167400
     26 C35         -9.0810     0.7870     1.2360 c          1 PVM       0.534200
     27 C38         -9.6920     1.6270     3.5560 c3         1 PVM      -0.039900
     28 C4           2.5250     3.2880    -0.1940 c6         1 PVM      -0.073100
     29 C40         -8.2990    -0.0450    -0.9830 ca         1 PVM       0.012600
     30 C41         -8.7900     0.9620    -1.8380 ca         1 PVM      -0.049500
     31 C42         -9.0050     0.6940    -3.2020 ca         1 PVM      -0.171500
     32 C43         -8.7290    -0.5770    -3.7300 ca         1 PVM       0.146100
     33 C44         -8.2310    -1.5880    -2.8810 ca         1 PVM      -0.171500
     34 C45         -8.0160    -1.3200    -1.5170 ca         1 PVM      -0.049500
     35 C47         -8.7100    -2.0450    -5.7140 c3         1 PVM       0.148900
     36 C48          1.4980    -4.6020     5.9690 c          1 PVM       0.720600
     37 C5           3.9010    -0.2860     0.1660 ca         1 PVM      -0.081000
     38 C6           2.7740    -0.9630     0.6580 ca         1 PVM       0.100100
     39 C7           1.5540    -0.2740     0.8430 ca         1 PVM       0.131100
     40 C8           1.4970     1.1060     0.5580 ca         1 PVM      -0.193000
     41 F            1.3440    -6.0290     3.4740 f          1 PVM      -0.165000
     42 N11          6.7680     2.3050    -3.6940 ns         1 PVM      -0.469400
     43 N16          7.1810     3.4160    -5.6570 nd         1 PVM      -0.718000
     44 N27         -3.0620    -0.8820     2.5260 na         1 PVM       0.125800
     45 N30         -4.5520    -0.0290     3.8130 nd         1 PVM      -0.356000
     46 N31         -3.3140    -0.4490     3.7970 nc         1 PVM      -0.183800
     47 N36         -8.0660     0.2230     0.4120 n          1 PVM      -0.040000
     48 N37         -6.7840    -0.0880     0.8400 nc         1 PVM      -0.431300
     49 O12          8.0940     1.7140    -1.9360 o          1 PVM      -0.571100
     50 O39        -10.2110     1.0380     0.8260 o          1 PVM      -0.537000
     51 O46         -8.9600    -0.7800    -5.0750 os         1 PVM      -0.341100
     52 O49          2.2530    -4.4130     6.9120 o          1 PVM      -0.708500
     53 O50          0.4300    -5.1880     6.0680 o          1 PVM      -0.708500
     54 O9           2.8900    -2.3100     0.9380 os         1 PVM      -0.253200
     55 S            9.3380     3.3050    -4.1790 ss         1 PVM       0.062600
     56 H1           4.2520     3.0320    -2.0690 hn         1 PVM       0.401000
     57 H3           4.3530     4.0780     0.6830 h1         1 PVM       0.058700
     58 H4           3.7710     4.9790    -0.7270 h1         1 PVM       0.058700
     59 H5          10.3300     4.5480    -6.0630 h4         1 PVM       0.155000
     60 H6           7.9710     4.4940    -7.3300 h4         1 PVM       0.033100
     61 H7           6.1190     0.0690    -1.4870 hc         1 PVM       0.073200
     62 H8           5.0130     0.8900    -2.6130 hc         1 PVM       0.073200
     63 H9           5.6410     2.3630     1.4160 hc         1 PVM       0.050700
     64 H10          6.5730     1.0130     0.7780 hc         1 PVM       0.050700
     65 H11          6.9440     2.6670     0.2650 hc         1 PVM       0.050700
     66 H12          3.0610    -1.0770     3.3190 ha         1 PVM       0.103000
     67 H13          2.4470    -2.0860     5.4970 ha         1 PVM       0.137000
     68 H14          2.0180    -4.7530     1.3090 ha         1 PVM       0.119000
     69 H15         -0.6490     0.4400     2.3850 h1         1 PVM       0.047200
     70 H16         -1.2380     0.1320     0.7270 h1         1 PVM       0.047200
     71 H17         -1.8800    -2.1920     1.3990 h1         1 PVM       0.098200
     72 H18         -1.2920    -1.8820     3.0430 h1         1 PVM       0.098200
     73 H19         -4.1830    -1.0120     0.6650 h4         1 PVM       0.181000
     74 H20         -7.0500     0.8840     4.0770 ha         1 PVM       0.219000
     75 H21         -9.2980     1.7800     4.5680 hc         1 PVM       0.051700
     76 H22        -10.0310     2.6010     3.1820 hc         1 PVM       0.051700
     77 H23        -10.5670     0.9710     3.6370 hc         1 PVM       0.051700
     78 H24          1.9450     3.7800     0.5980 hc         1 PVM       0.052200
     79 H25          1.9640     3.4380    -1.1260 hc         1 PVM       0.052200
     80 H26         -9.0000     1.9560    -1.4480 ha         1 PVM       0.126500
     81 H27         -9.3840     1.4770    -3.8530 ha         1 PVM       0.124500
     82 H28         -8.0050    -2.5820    -3.2570 ha         1 PVM       0.124500
     83 H29         -7.6320    -2.1060    -0.8700 ha         1 PVM       0.126500
     84 H30         -7.6510    -2.3230    -5.6280 h1         1 PVM       0.041033
     85 H31         -9.3210    -2.8370    -5.2630 h1         1 PVM       0.041033
     86 H32         -8.9600    -1.9880    -6.7810 h1         1 PVM       0.041033
     87 H33          4.8230    -0.8480     0.0480 ha         1 PVM       0.132000
     88 H34          0.5780     1.6670     0.7000 ha         1 PVM       0.115000
     89 H35          5.8260     2.2310    -4.0400 hn         1 PVM       0.337500
@<TRIPOS>BOND
     1     1     2 1   
     2     1     4 1   
     3     1    56 1   
     4     2    28 1   
     5     2    57 1   
     6     2    58 1   
     7     3    18 1   
     8     3    39 1   
     9     4     9 1   
    10     4    10 1   
    11     4    12 1   
    12     5     9 1   
    13     5    42 1   
    14     5    49 2   
    15     6    42 1   
    16     6    43 2   
    17     6    55 1   
    18     7     8 2   
    19     7    55 1   
    20     7    59 1   
    21     8    43 1   
    22     8    60 1   
    23     9    61 1   
    24     9    62 1   
    25    10    63 1   
    26    10    64 1   
    27    10    65 1   
    28    11    13 ar  
    29    11    17 ar  
    30    11    54 1   
    31    12    22 ar  
    32    12    37 ar  
    33    13    14 ar  
    34    13    66 1   
    35    14    15 ar  
    36    14    67 1   
    37    15    16 ar  
    38    15    36 1   
    39    16    17 ar  
    40    16    41 1   
    41    17    68 1   
    42    18    19 1   
    43    18    69 1   
    44    18    70 1   
    45    19    44 1   
    46    19    71 1   
    47    19    72 1   
    48    20    21 2   
    49    20    44 1   
    50    20    73 1   
    51    21    23 1   
    52    21    45 1   
    53    22    28 1   
    54    22    40 ar  
    55    23    24 1   
    56    23    48 2   
    57    24    25 2   
    58    24    74 1   
    59    25    26 1   
    60    25    27 1   
    61    26    47 1   
    62    26    50 2   
    63    27    75 1   
    64    27    76 1   
    65    27    77 1   
    66    28    78 1   
    67    28    79 1   
    68    29    30 ar  
    69    29    34 ar  
    70    29    47 1   
    71    30    31 ar  
    72    30    80 1   
    73    31    32 ar  
    74    31    81 1   
    75    32    33 ar  
    76    32    51 1   
    77    33    34 ar  
    78    33    82 1   
    79    34    83 1   
    80    35    51 1   
    81    35    84 1   
    82    35    85 1   
    83    35    86 1   
    84    36    52 1   
    85    36    53 1   
    86    37    38 ar  
    87    37    87 1   
    88    38    39 ar  
    89    38    54 1   
    90    39    40 ar  
    91    40    88 1   
    92    42    89 1   
    93    44    46 1   
    94    45    46 2   
    95    47    48 1   
@<TRIPOS>SUBSTRUCTURE
     1 PVM         1 TEMP              0 ****  ****    0 ROOT
