@<TRIPOS>MOLECULE
PVN
   81    84     1     0     0
SMALL
No Charge or Current Charge


@<TRIPOS>ATOM
      1 C31        -25.2030    14.4690    -3.9030 c3         1 PVN      -0.032200
      2 C32        -24.7910    12.9920    -3.7590 c3         1 PVN      -0.093100
      3 C3         -26.5690    14.6160    -4.5460 c2         1 PVN      -0.081400
      4 C2         -26.8560    14.8810    -5.8330 ce         1 PVN      -0.193400
      5 C21        -25.8690    15.1000    -6.9680 c3         1 PVN      -0.022900
      6 C1         -28.3000    14.8340    -6.0640 c          1 PVN       0.553200
      7 O1         -28.9060    15.0240    -7.1060 o          1 PVN      -0.586000
      8 N1         -28.8700    14.5180    -4.8730 ns         1 PVN      -0.499900
      9 C4         -27.8880    14.3910    -3.7800 c5         1 PVN       0.119900
     10 C5         -28.1440    15.4140    -2.6460 c3         1 PVN      -0.005100
     11 C6         -29.4870    15.2340    -1.9720 cc         1 PVN      -0.156300
     12 C7         -30.5310    16.1100    -1.8040 cd         1 PVN      -0.160300
     13 C41        -30.5590    17.5420    -2.2880 c3         1 PVN      -0.003800
     14 N2         -29.9070    14.0380    -1.4050 na         1 PVN      -0.086000
     15 C9         -31.1920    14.1380    -0.8890 cc         1 PVN      -0.186800
     16 C8         -31.5880    15.4360    -1.1190 cd         1 PVN      -0.010300
     17 C51        -32.9370    16.0390    -0.7820 c3         1 PVN       0.001900
     18 C52        -32.9040    17.0940     0.3530 c3         1 PVN      -0.200400
     19 C53        -32.5250    16.4470     1.6960 c          1 PVN       0.696000
     20 O54        -33.4220    15.9610     2.3670 o          1 PVN      -0.720500
     21 O55        -31.3510    16.4510     2.0340 o          1 PVN      -0.720500
     22 C10        -31.8940    12.9720    -0.3320 ce         1 PVN       0.104800
     23 C11        -31.5570    11.6280    -0.4080 cd         1 PVN      -0.005400
     24 C12        -32.3770    10.5220     0.0170 cd         1 PVN       0.007800
     25 C61        -33.7560    10.5390     0.6460 c3         1 PVN      -0.005200
     26 C62        -33.7840    10.0760     2.1240 c3         1 PVN      -0.196400
     27 C63        -32.9910    11.0410     3.0220 c          1 PVN       0.691000
     28 O64        -33.5770    12.0120     3.4730 o          1 PVN      -0.721000
     29 O65        -31.8140    10.7980     3.2420 o          1 PVN      -0.721000
     30 N3         -30.3560    11.2230    -0.9700 nd         1 PVN      -0.626300
     31 C14        -30.4360     9.9060    -0.9140 cc         1 PVN       0.430900
     32 C13        -31.6370     9.4190    -0.3270 cc         1 PVN      -0.267800
     33 C71        -31.9690     7.9560    -0.1700 c3         1 PVN      -0.006900
     34 C15        -29.3580     9.0770    -1.4380 ce         1 PVN      -0.177600
     35 C16        -28.5110     9.1700    -2.5240 cd         1 PVN      -0.013400
     36 C17        -28.6130    10.0690    -3.6560 cd         1 PVN       0.008800
     37 C81        -29.7240    11.0380    -3.9800 c3         1 PVN      -0.050900
     38 N4         -27.4100     8.3900    -2.7580 ns         1 PVN      -0.425100
     39 C19        -26.7180     8.7090    -3.8780 c          1 PVN       0.554200
     40 O19        -25.6920     8.1810    -4.2780 o          1 PVN      -0.582000
     41 C18        -27.5080     9.8070    -4.4510 cc         1 PVN      -0.236400
     42 C91        -27.0720    10.4600    -5.7410 c3         1 PVN      -0.007200
     43 C92        -27.6620     9.7720    -6.9840 c3         1 PVN      -0.083100
     44 H321       -25.5120    12.4440    -3.1400 hc         1 PVN       0.044033
     45 H322       -24.7430    12.5090    -4.7420 hc         1 PVN       0.044033
     46 HC4        -27.8970    13.3820    -3.3470 h1         1 PVN       0.080700
     47 H211       -26.3150    14.8740    -7.9440 hc         1 PVN       0.041033
     48 H212       -25.5250    16.1410    -6.9940 hc         1 PVN       0.041033
     49 H213       -24.9860    14.4590    -6.8610 hc         1 PVN       0.041033
     50 HN1        -29.8780    14.4810    -4.7910 hn         1 PVN       0.344500
     51 H5C1       -28.0550    16.4300    -3.0480 hc         1 PVN       0.063200
     52 H5C2       -27.3570    15.3240    -1.8890 hc         1 PVN       0.063200
     53 HN2        -29.3770    13.1690    -1.3890 hn         1 PVN       0.389000
     54 H411       -31.5790    17.9330    -2.3630 hc         1 PVN       0.027700
     55 H412       -29.9990    18.1940    -1.6080 hc         1 PVN       0.027700
     56 H413       -30.1090    17.6310    -3.2840 hc         1 PVN       0.027700
     57 H101       -32.8560    13.1930     0.1240 ha         1 PVN       0.235000
     58 H511       -33.3540    16.5100    -1.6800 hc         1 PVN       0.025700
     59 H512       -33.6540    15.2550    -0.5120 hc         1 PVN       0.025700
     60 H521       -33.9280    17.4840     0.4010 hc         1 PVN       0.014200
     61 H522       -32.1640    17.8490     0.0620 hc         1 PVN       0.014200
     62 H611       -34.2130    11.5320     0.5780 hc         1 PVN       0.029200
     63 H612       -34.4160     9.8800     0.0690 hc         1 PVN       0.029200
     64 H621       -34.8450    10.0880     2.4030 hc         1 PVN       0.013200
     65 H622       -33.3410     9.0730     2.1450 hc         1 PVN       0.013200
     66 H151       -29.1190     8.2570    -0.7650 ha         1 PVN       0.181000
     67 H711       -31.4840     7.5420     0.7220 hc         1 PVN       0.025367
     68 H712       -33.0490     7.7980    -0.0710 hc         1 PVN       0.025367
     69 H713       -31.6310     7.3780    -1.0380 hc         1 PVN       0.025367
     70 HN4        -27.0760     7.6510    -2.1500 hn         1 PVN       0.327500
     71 H811       -29.7450    11.2820    -5.0480 hc         1 PVN       0.057033
     72 H812       -30.7020    10.6120    -3.7300 hc         1 PVN       0.057033
     73 H813       -29.6130    11.9760    -3.4330 hc         1 PVN       0.057033
     74 H911       -27.3660    11.5170    -5.7420 hc         1 PVN       0.050200
     75 H912       -25.9780    10.4520    -5.8170 hc         1 PVN       0.050200
     76 H921       -27.3260    10.2790    -7.8970 hc         1 PVN       0.029700
     77 H922       -27.3430     8.7240    -7.0340 hc         1 PVN       0.029700
     78 H923       -28.7580     9.8000    -6.9590 hc         1 PVN       0.029700
     79 H31        -25.1940    14.9410    -2.9140 hc         1 PVN       0.046700
     80 H323       -23.8030    12.9130    -3.2890 hc         1 PVN       0.044033
     81 HXT        -24.4420    14.9920    -4.4950 hc         1 PVN       0.046700
@<TRIPOS>BOND
     1     1     2 1   
     2     1     3 1   
     3     1    79 1   
     4     1    81 1   
     5     2    44 1   
     6     2    45 1   
     7     2    80 1   
     8     3     4 2   
     9     3     9 1   
    10     4     5 1   
    11     4     6 1   
    12     5    47 1   
    13     5    48 1   
    14     5    49 1   
    15     6     7 2   
    16     6     8 1   
    17     8     9 1   
    18     8    50 1   
    19     9    10 1   
    20     9    46 1   
    21    10    11 1   
    22    10    51 1   
    23    10    52 1   
    24    11    12 2   
    25    11    14 1   
    26    12    13 1   
    27    12    16 1   
    28    13    54 1   
    29    13    55 1   
    30    13    56 1   
    31    14    15 1   
    32    14    53 1   
    33    15    16 2   
    34    15    22 1   
    35    16    17 1   
    36    17    18 1   
    37    17    58 1   
    38    17    59 1   
    39    18    19 1   
    40    18    60 1   
    41    18    61 1   
    42    19    20 1   
    43    19    21 1   
    44    22    23 2   
    45    22    57 1   
    46    23    24 1   
    47    23    30 1   
    48    24    25 1   
    49    24    32 2   
    50    25    26 1   
    51    25    62 1   
    52    25    63 1   
    53    26    27 1   
    54    26    64 1   
    55    26    65 1   
    56    27    28 1   
    57    27    29 1   
    58    30    31 2   
    59    31    32 1   
    60    31    34 1   
    61    32    33 1   
    62    33    67 1   
    63    33    68 1   
    64    33    69 1   
    65    34    35 2   
    66    34    66 1   
    67    35    36 1   
    68    35    38 1   
    69    36    37 1   
    70    36    41 2   
    71    37    71 1   
    72    37    72 1   
    73    37    73 1   
    74    38    39 1   
    75    38    70 1   
    76    39    40 2   
    77    39    41 1   
    78    41    42 1   
    79    42    43 1   
    80    42    74 1   
    81    42    75 1   
    82    43    76 1   
    83    43    77 1   
    84    43    78 1   
@<TRIPOS>SUBSTRUCTURE
     1 PVN         1 TEMP              0 ****  ****    0 ROOT
