@<TRIPOS>MOLECULE
PVN
   81    84     1     0     0
SMALL
abcg2


@<TRIPOS>ATOM
      1 C31        -25.3560    14.0820    -3.5240 c3         1 PVN      -0.032200
      2 C32        -25.3020    12.6900    -2.8770 c3         1 PVN      -0.093100
      3 C3         -26.5680    14.2810    -4.3700 c2         1 PVN      -0.081400
      4 C2         -26.6490    14.4710    -5.6970 ce         1 PVN      -0.193400
      5 C21        -25.5750    14.5460    -6.7250 c3         1 PVN      -0.022900
      6 C1         -28.0830    14.5630    -6.0800 c          1 PVN       0.553200
      7 O1         -28.5460    14.6930    -7.2140 o          1 PVN      -0.586000
      8 N1         -28.7980    14.4620    -4.9310 ns         1 PVN      -0.499900
      9 C4         -27.9550    14.2370    -3.7750 c5         1 PVN       0.119900
     10 C5         -28.1930    15.2710    -2.6580 c3         1 PVN      -0.005100
     11 C6         -29.5560    15.1680    -2.0630 cc         1 PVN      -0.156300
     12 C7         -30.5660    16.1250    -1.9000 cd         1 PVN      -0.160300
     13 C41        -30.4990    17.5600    -2.3190 c3         1 PVN      -0.003800
     14 N2         -30.0040    13.9960    -1.5600 na         1 PVN      -0.086000
     15 C9         -31.2870    14.1360    -1.0670 cc         1 PVN      -0.186800
     16 C8         -31.6550    15.4840    -1.2680 cd         1 PVN      -0.010300
     17 C51        -32.9550    16.1200    -0.8940 c3         1 PVN       0.001900
     18 C52        -32.8440    17.0830     0.3040 c3         1 PVN      -0.200400
     19 C53        -32.4590    16.3500     1.6000 c          1 PVN       0.696000
     20 O54        -33.3200    15.5620     2.0760 o          1 PVN      -0.720500
     21 O55        -31.3200    16.5780     2.0860 o          1 PVN      -0.720500
     22 C10        -32.0010    13.0440    -0.5380 ce         1 PVN       0.104800
     23 C11        -31.5710    11.7330    -0.5420 cd         1 PVN      -0.005400
     24 C12        -32.2620    10.5540    -0.0440 cd         1 PVN       0.007800
     25 C61        -33.5760    10.5300     0.6740 c3         1 PVN      -0.005200
     26 C62        -33.4700    10.0240     2.1250 c3         1 PVN      -0.196400
     27 C63        -32.5090    10.8530     2.9940 c          1 PVN       0.691000
     28 O64        -32.7600    12.0820     3.1110 o          1 PVN      -0.721000
     29 O65        -31.5460    10.2450     3.5330 o          1 PVN      -0.721000
     30 N3         -30.3640    11.3570    -1.1210 nd         1 PVN      -0.626300
     31 C14        -30.2980    10.0360    -1.0330 cc         1 PVN       0.430900
     32 C13        -31.4540     9.4850    -0.3470 cc         1 PVN      -0.267800
     33 C71        -31.6910     8.0320    -0.0860 c3         1 PVN      -0.006900
     34 C15        -29.1730     9.2910    -1.5500 ce         1 PVN      -0.177600
     35 C16        -28.4770     9.5730    -2.6760 cd         1 PVN      -0.013400
     36 C17        -28.7920    10.4120    -3.8450 cd         1 PVN       0.008800
     37 C81        -30.1030    11.0700    -4.1210 c3         1 PVN      -0.050900
     38 N4         -27.2430     8.9750    -2.9580 ns         1 PVN      -0.425100
     39 C19        -26.7100     9.4630    -4.1250 c          1 PVN       0.554200
     40 O19        -25.5960     9.1940    -4.5700 o          1 PVN      -0.582000
     41 C18        -27.7440    10.3510    -4.7030 cc         1 PVN      -0.236400
     42 C91        -27.5900    10.9620    -6.0530 c3         1 PVN      -0.007200
     43 C92        -27.8830     9.9700    -7.1880 c3         1 PVN      -0.083100
     44 H321       -26.1660    12.5130    -2.2340 hc         1 PVN       0.044033
     45 H322       -25.2860    11.9100    -3.6390 hc         1 PVN       0.044033
     46 HC4        -28.1340    13.2340    -3.3740 h1         1 PVN       0.080700
     47 H211       -25.6810    13.7340    -7.4490 hc         1 PVN       0.041033
     48 H212       -25.6400    15.4820    -7.2850 hc         1 PVN       0.041033
     49 H213       -24.5850    14.4790    -6.2780 hc         1 PVN       0.041033
     50 HN1        -29.8010    14.3740    -4.9140 hn         1 PVN       0.344500
     51 H5C1       -28.0340    16.2710    -3.0590 hc         1 PVN       0.063200
     52 H5C2       -27.4440    15.1070    -1.8780 hc         1 PVN       0.063200
     53 HN2        -29.5650    13.0770    -1.5670 hn         1 PVN       0.389000
     54 H411       -31.4710    17.9090    -2.6720 hc         1 PVN       0.027700
     55 H412       -30.2040    18.2120    -1.4920 hc         1 PVN       0.027700
     56 H413       -29.7790    17.7050    -3.1250 hc         1 PVN       0.027700
     57 H101       -32.9720    13.2610    -0.1140 ha         1 PVN       0.235000
     58 H511       -33.3370    16.6800    -1.7530 hc         1 PVN       0.025700
     59 H512       -33.6950    15.3540    -0.6620 hc         1 PVN       0.025700
     60 H521       -33.8160    17.5610     0.4510 hc         1 PVN       0.014200
     61 H522       -32.1120    17.8600     0.0870 hc         1 PVN       0.014200
     62 H611       -34.0130    11.5290     0.6790 hc         1 PVN       0.029200
     63 H612       -34.2770     9.8830     0.1360 hc         1 PVN       0.029200
     64 H621       -34.4650    10.0680     2.5790 hc         1 PVN       0.013200
     65 H622       -33.1480     8.9830     2.1330 hc         1 PVN       0.013200
     66 H151       -28.8240     8.4550    -0.9500 ha         1 PVN       0.181000
     67 H711       -31.1830     7.6970     0.8230 hc         1 PVN       0.025367
     68 H712       -32.7540     7.8200     0.0380 hc         1 PVN       0.025367
     69 H713       -31.3180     7.4190    -0.9090 hc         1 PVN       0.025367
     70 HN4        -26.6990     8.4680    -2.2760 hn         1 PVN       0.327500
     71 H811       -30.2050    11.2720    -5.1860 hc         1 PVN       0.057033
     72 H812       -30.9270    10.4290    -3.8060 hc         1 PVN       0.057033
     73 H813       -30.2150    12.0060    -3.5770 hc         1 PVN       0.057033
     74 H911       -28.2490    11.8240    -6.1450 hc         1 PVN       0.050200
     75 H912       -26.5670    11.3340    -6.1540 hc         1 PVN       0.050200
     76 H921       -27.7340    10.4450    -8.1600 hc         1 PVN       0.029700
     77 H922       -27.2260     9.1010    -7.1280 hc         1 PVN       0.029700
     78 H923       -28.9160     9.6190    -7.1340 hc         1 PVN       0.029700
     79 H31        -25.3370    14.8410    -2.7360 hc         1 PVN       0.046700
     80 H323       -24.4020    12.5920    -2.2670 hc         1 PVN       0.044033
     81 HXT        -24.4620    14.2370    -4.1280 hc         1 PVN       0.046700
@<TRIPOS>BOND
     1     1     2 1   
     2     1     3 1   
     3     1    79 1   
     4     1    81 1   
     5     2    44 1   
     6     2    45 1   
     7     2    80 1   
     8     3     4 2   
     9     3     9 1   
    10     4     5 1   
    11     4     6 1   
    12     5    47 1   
    13     5    48 1   
    14     5    49 1   
    15     6     7 2   
    16     6     8 1   
    17     8     9 1   
    18     8    50 1   
    19     9    10 1   
    20     9    46 1   
    21    10    11 1   
    22    10    51 1   
    23    10    52 1   
    24    11    12 2   
    25    11    14 1   
    26    12    13 1   
    27    12    16 1   
    28    13    54 1   
    29    13    55 1   
    30    13    56 1   
    31    14    15 1   
    32    14    53 1   
    33    15    16 2   
    34    15    22 1   
    35    16    17 1   
    36    17    18 1   
    37    17    58 1   
    38    17    59 1   
    39    18    19 1   
    40    18    60 1   
    41    18    61 1   
    42    19    20 1   
    43    19    21 1   
    44    22    23 2   
    45    22    57 1   
    46    23    24 1   
    47    23    30 1   
    48    24    25 1   
    49    24    32 2   
    50    25    26 1   
    51    25    62 1   
    52    25    63 1   
    53    26    27 1   
    54    26    64 1   
    55    26    65 1   
    56    27    28 1   
    57    27    29 1   
    58    30    31 2   
    59    31    32 1   
    60    31    34 1   
    61    32    33 1   
    62    33    67 1   
    63    33    68 1   
    64    33    69 1   
    65    34    35 2   
    66    34    66 1   
    67    35    36 1   
    68    35    38 1   
    69    36    37 1   
    70    36    41 2   
    71    37    71 1   
    72    37    72 1   
    73    37    73 1   
    74    38    39 1   
    75    38    70 1   
    76    39    40 2   
    77    39    41 1   
    78    41    42 1   
    79    42    43 1   
    80    42    74 1   
    81    42    75 1   
    82    43    76 1   
    83    43    77 1   
    84    43    78 1   
@<TRIPOS>SUBSTRUCTURE
     1 PVN         1 TEMP              0 ****  ****    0 ROOT
