@<TRIPOS>MOLECULE
PVO
   12    11     1     0     0
SMALL
bcc


@<TRIPOS>ATOM
      1 CAB          0.9540    -0.1380     0.0260 c          1 PVO       0.925600
      2 OAD          1.3960    -1.2980     0.0770 o          1 PVO      -0.813300
      3 CAC         -0.5910     0.0560    -0.0060 c3         1 PVO       0.186600
      4 CAE         -1.0440     1.0210     1.0790 c3         1 PVO      -0.087100
      5 OAG         -0.9790     0.6400    -1.2330 oh         1 PVO      -0.617300
      6 OAF         -1.1920    -1.1990     0.1550 oh         1 PVO      -0.617300
      7 H4          -0.5860     2.0000     0.9540 hc         1 PVO       0.026367
      8 H5          -2.1310     1.1480     1.0610 hc         1 PVO       0.026367
      9 H6          -0.7680     0.6430     2.0640 hc         1 PVO       0.026367
     10 H7          -0.6500     0.0940    -1.9560 ho         1 PVO       0.378000
     11 H8          -2.1450    -1.0660     0.2130 ho         1 PVO       0.378000
     12 OXT          1.6120     0.9190    -0.0200 o          1 PVO      -0.813300
@<TRIPOS>BOND
     1     1     2 1   
     2     1     3 1   
     3     1    12 1   
     4     3     4 1   
     5     3     5 1   
     6     3     6 1   
     7     4     7 1   
     8     4     8 1   
     9     4     9 1   
    10     5    10 1   
    11     6    11 1   
@<TRIPOS>SUBSTRUCTURE
     1 PVO         1 TEMP              0 ****  ****    0 ROOT
