@<TRIPOS>MOLECULE
PVO
   12    11     1     0     0
SMALL
No Charge or Current Charge


@<TRIPOS>ATOM
      1 CAB          1.0060    -0.1410     0.0220 c          1 PVO       0.715000
      2 OAD          1.5480    -0.5180    -1.0150 o          1 PVO      -0.708000
      3 CAC         -0.6070    -0.0170     0.0290 c3         1 PVO       0.233000
      4 CAE         -1.0960     1.1730     0.8910 c3         1 PVO      -0.087100
      5 OAG         -1.1280     0.1450    -1.2910 oh         1 PVO      -0.679500
      6 OAF         -1.2420    -1.2060     0.5060 oh         1 PVO      -0.679500
      7 H4          -0.6510     2.1110     0.5390 hc         1 PVO       0.026367
      8 H5          -2.1880     1.2770     0.8440 hc         1 PVO       0.026367
      9 H6          -0.8140     1.0380     1.9430 hc         1 PVO       0.026367
     10 H7          -0.4590    -0.2830    -1.8710 ho         1 PVO       0.417000
     11 H8          -2.1370    -0.9320     0.7960 ho         1 PVO       0.417000
     12 OXT          1.6450     0.1730     1.0220 o          1 PVO      -0.708000
@<TRIPOS>BOND
     1     1     2 1   
     2     1     3 1   
     3     1    12 1   
     4     3     4 1   
     5     3     5 1   
     6     3     6 1   
     7     4     7 1   
     8     4     8 1   
     9     4     9 1   
    10     5    10 1   
    11     6    11 1   
@<TRIPOS>SUBSTRUCTURE
     1 PVO         1 TEMP              0 ****  ****    0 ROOT
