@<TRIPOS>MOLECULE
PVP
   43    45     1     0     0
SMALL
bcc


@<TRIPOS>ATOM
      1 CL           0.5090    -3.1140    -0.4720 cl         1 PVP      -0.088400
      2 C8          -0.6060    -1.7960    -0.4330 ca         1 PVP      -0.268200
      3 C9          -1.9610    -2.0560    -0.5660 ca         1 PVP       0.488600
      4 C16         -2.4800    -3.4170    -0.8960 c3         1 PVP      -0.151400
      5 N3          -2.8550    -1.0890    -0.3670 nb         1 PVP      -0.743000
      6 C6          -2.3980     0.1000    -0.0060 cp         1 PVP       0.651000
      7 C5          -3.4150     1.1360     0.3190 cp         1 PVP       0.354300
      8 N23         -2.9680     2.2980     0.7870 nb         1 PVP      -0.629000
      9 C1          -3.8510     3.2340     1.0970 ca         1 PVP       0.393200
     10 C2          -5.2230     3.0710     0.9570 ca         1 PVP      -0.234300
     11 C3          -5.6880     1.8610     0.4670 ca         1 PVP      -0.106000
     12 C4          -4.7710     0.8740     0.1420 ca         1 PVP      -0.199300
     13 N2          -1.1270     0.4430     0.0810 nb         1 PVP      -0.739000
     14 C7          -0.1950    -0.4740    -0.1640 ca         1 PVP       0.719200
     15 N4           1.1100    -0.0940    -0.0830 nh         1 PVP      -0.767300
     16 C13          2.0680    -0.4100    -1.1360 c6         1 PVP       0.211800
     17 C12          3.4690    -0.4720    -0.5640 c6         1 PVP       0.156800
     18 N5           3.8120     0.7820     0.0770 n3         1 PVP      -0.703600
     19 C11          2.8450     1.0980     1.1090 c6         1 PVP       0.156800
     20 C10          1.4330     1.1710     0.5570 c6         1 PVP       0.211800
     21 C14          5.1600     0.7930     0.6120 c3         1 PVP       0.168800
     22 C15          6.2530     0.7570    -0.4350 c3         1 PVP       0.142400
     23 O1           6.1330     1.8770    -1.2820 oh         1 PVP      -0.578800
     24 H1          -2.2780    -4.1190    -0.0850 hc         1 PVP       0.060700
     25 H2          -3.5550    -3.3750    -1.0530 hc         1 PVP       0.060700
     26 H3          -2.0070    -3.8190    -1.7930 hc         1 PVP       0.060700
     27 H4          -3.4500     4.1670     1.4780 h4         1 PVP       0.021100
     28 H5          -5.8990     3.8700     1.2260 ha         1 PVP       0.141000
     29 H6          -6.7470     1.6850     0.3390 ha         1 PVP       0.139000
     30 H7          -5.0960    -0.0830    -0.2400 ha         1 PVP       0.164000
     31 H8           1.8300    -1.3510    -1.6200 h1         1 PVP       0.061450
     32 H9           2.0220     0.3710    -1.9060 h1         1 PVP       0.061450
     33 H10          3.5350    -1.3240     0.1360 h1         1 PVP       0.039950
     34 H11          4.1600    -0.6730    -1.3840 h1         1 PVP       0.039950
     35 H13          2.8640     0.3600     1.9310 h1         1 PVP       0.039950
     36 H14          3.0960     2.0680     1.5450 h1         1 PVP       0.039950
     37 H15          1.3440     2.0050    -0.1510 h1         1 PVP       0.061450
     38 H16          0.7390     1.3580     1.3730 h1         1 PVP       0.061450
     39 H17          5.2760     1.7060     1.2040 h1         1 PVP       0.037700
     40 H18          5.3340    -0.0470     1.3070 h1         1 PVP       0.037700
     41 H19          7.2110     0.7530     0.1010 h1         1 PVP       0.014700
     42 H20          6.2180    -0.1820    -1.0010 h1         1 PVP       0.014700
     43 H21          6.8790     1.8710    -1.8880 ho         1 PVP       0.397000
@<TRIPOS>BOND
     1     1     2 1   
     2     2     3 ar  
     3     2    14 ar  
     4     3     4 1   
     5     3     5 ar  
     6     4    24 1   
     7     4    25 1   
     8     4    26 1   
     9     5     6 ar  
    10     6     7 1   
    11     6    13 ar  
    12     7     8 ar  
    13     7    12 ar  
    14     8     9 ar  
    15     9    10 ar  
    16     9    27 1   
    17    10    11 ar  
    18    10    28 1   
    19    11    12 ar  
    20    11    29 1   
    21    12    30 1   
    22    13    14 ar  
    23    14    15 1   
    24    15    16 1   
    25    15    20 1   
    26    16    17 1   
    27    16    31 1   
    28    16    32 1   
    29    17    18 1   
    30    17    33 1   
    31    17    34 1   
    32    18    19 1   
    33    18    21 1   
    34    19    20 1   
    35    19    35 1   
    36    19    36 1   
    37    20    37 1   
    38    20    38 1   
    39    21    22 1   
    40    21    39 1   
    41    21    40 1   
    42    22    23 1   
    43    22    41 1   
    44    22    42 1   
    45    23    43 1   
@<TRIPOS>SUBSTRUCTURE
     1 PVP         1 TEMP              0 ****  ****    0 ROOT
