@<TRIPOS>MOLECULE
PVP
   43    45     1     0     0
SMALL
No Charge or Current Charge


@<TRIPOS>ATOM
      1 Cl           0.5050    -3.2630    -0.4670 cl         1 PVP      -0.180000
      2 C8          -0.6590    -1.9330    -0.3070 ca         1 PVP      -0.046000
      3 C9          -2.0440    -2.1720    -0.4140 ca         1 PVP       0.160300
      4 C16         -2.6110    -3.5530    -0.7040 c3         1 PVP      -0.151400
      5 N3          -2.9390    -1.1760    -0.2550 nb         1 PVP      -0.217000
      6 C6          -2.4780     0.0650     0.0190 cp         1 PVP       0.125000
      7 C5          -3.4980     1.1720     0.2080 cp         1 PVP       0.289000
      8 N23         -3.0360     2.4200     0.4940 nb         1 PVP      -0.629000
      9 C1          -3.9150     3.4330     0.6710 ca         1 PVP       0.327900
     10 C2          -5.3040     3.2590     0.5720 ca         1 PVP      -0.151000
     11 C3          -5.8110     1.9850     0.2780 ca         1 PVP      -0.088000
     12 C4          -4.8970     0.9340     0.0950 ca         1 PVP      -0.116000
     13 N2          -1.1660     0.3740     0.1370 nb         1 PVP      -0.213000
     14 C7          -0.2540    -0.6050    -0.0300 ca         1 PVP       0.390900
     15 N4           1.1060    -0.2310     0.1000 nh         1 PVP      -0.767300
     16 C13          1.9970    -0.2750    -1.1030 c6         1 PVP       0.211800
     17 C12          3.5110    -0.3190    -0.7170 c6         1 PVP       0.156800
     18 N5           3.9090     0.8000     0.1980 n3         1 PVP      -0.703600
     19 C11          3.0260     0.7990     1.4060 c6         1 PVP       0.156800
     20 C10          1.5050     0.8550     1.0530 c6         1 PVP       0.211800
     21 C14          5.3570     0.7960     0.5580 c3         1 PVP       0.168800
     22 C15          6.3710     0.9570    -0.6170 c3         1 PVP       0.165600
     23 O1           6.2080     2.2150    -1.2960 oh         1 PVP      -0.641000
     24 H1          -2.3390    -4.2620     0.0880 hc         1 PVP       0.060700
     25 H2          -3.7060    -3.5400    -0.7720 hc         1 PVP       0.060700
     26 H3          -2.2260    -3.9430    -1.6530 hc         1 PVP       0.060700
     27 H4          -3.4910     4.4100     0.8970 h4         1 PVP       0.021100
     28 H5          -5.9710     4.1040     0.7220 ha         1 PVP       0.123000
     29 H6          -6.8830     1.8150     0.1940 ha         1 PVP       0.121000
     30 H7          -5.2710    -0.0600    -0.1330 ha         1 PVP       0.146000
     31 H8           1.7730    -1.1490    -1.7290 h1         1 PVP       0.061450
     32 H9           1.8220     0.6150    -1.7240 h1         1 PVP       0.061450
     33 H10          3.7200    -1.2880    -0.2400 h1         1 PVP       0.039950
     34 H11          4.0960    -0.2860    -1.6460 h1         1 PVP       0.039950
     35 H13          3.2090    -0.1080     2.0020 h1         1 PVP       0.039950
     36 H14          3.2640     1.6570     2.0510 h1         1 PVP       0.039950
     37 H15          1.2820     1.8390     0.6160 h1         1 PVP       0.061450
     38 H16          0.9310     0.7740     1.9880 h1         1 PVP       0.061450
     39 H17          5.5550     1.6060     1.2720 h1         1 PVP       0.037700
     40 H18          5.5990    -0.1410     1.0780 h1         1 PVP       0.037700
     41 H19          7.3870     0.8880    -0.2070 h1         1 PVP       0.014700
     42 H20          6.2520     0.1250    -1.3230 h1         1 PVP       0.014700
     43 H21          6.8460     2.2210    -2.0420 ho         1 PVP       0.436000
@<TRIPOS>BOND
     1     1     2 1   
     2     2     3 ar  
     3     2    14 ar  
     4     3     4 1   
     5     3     5 ar  
     6     4    24 1   
     7     4    25 1   
     8     4    26 1   
     9     5     6 ar  
    10     6     7 1   
    11     6    13 ar  
    12     7     8 ar  
    13     7    12 ar  
    14     8     9 ar  
    15     9    10 ar  
    16     9    27 1   
    17    10    11 ar  
    18    10    28 1   
    19    11    12 ar  
    20    11    29 1   
    21    12    30 1   
    22    13    14 ar  
    23    14    15 1   
    24    15    16 1   
    25    15    20 1   
    26    16    17 1   
    27    16    31 1   
    28    16    32 1   
    29    17    18 1   
    30    17    33 1   
    31    17    34 1   
    32    18    19 1   
    33    18    21 1   
    34    19    20 1   
    35    19    35 1   
    36    19    36 1   
    37    20    37 1   
    38    20    38 1   
    39    21    22 1   
    40    21    39 1   
    41    21    40 1   
    42    22    23 1   
    43    22    41 1   
    44    22    42 1   
    45    23    43 1   
@<TRIPOS>SUBSTRUCTURE
     1 PVP         1 TEMP              0 ****  ****    0 ROOT
