@<TRIPOS>MOLECULE
PVQ
   28    29     1     0     0
SMALL
abcg2


@<TRIPOS>ATOM
      1 C1         -22.1640   -14.5570    20.3780 c          1 PVQ       0.617200
      2 C2         -23.0750   -15.2370    22.5990 c          1 PVQ       0.606000
      3 C3         -20.0040   -13.0120    22.9630 c5         1 PVQ       0.172000
      4 C4         -21.1430   -13.8550    22.4500 cc         1 PVQ       0.118400
      5 C5         -21.1440   -13.8640    21.0960 cd         1 PVQ      -0.381400
      6 C6         -20.0160   -13.0190    20.5690 c5         1 PVQ       0.231000
      7 C7         -22.0910   -14.4090    24.6780 c3         1 PVQ       0.122000
      8 C8         -23.1170   -13.3940    25.2000 c3         1 PVQ      -0.009500
      9 C9         -23.1300   -13.5210    26.7510 c          1 PVQ       0.688000
     10 N1         -23.0590   -15.2220    21.2220 ns         1 PVQ      -0.472500
     11 N2         -22.0710   -14.5020    23.2130 n          1 PVQ      -0.266000
     12 N3         -19.1850   -12.7350    21.7660 n7         1 PVQ      -0.842400
     13 N4         -22.8180   -12.0580    24.6870 n8         1 PVQ      -1.014200
     14 O1         -22.3040   -14.6180    19.1570 o          1 PVQ      -0.578000
     15 O2         -23.9170   -15.8610    23.2300 o          1 PVQ      -0.546000
     16 O3         -23.7620   -14.5020    27.2180 o          1 PVQ      -0.718000
     17 O4         -22.4870   -12.6610    27.4000 o          1 PVQ      -0.718000
     18 H1         -19.4130   -13.5120    23.7310 h1         1 PVQ       0.086700
     19 H2         -19.4220   -13.5210    19.8030 h1         1 PVQ       0.054200
     20 H3         -22.3190   -15.3950    25.0730 h1         1 PVQ       0.069200
     21 H4         -21.0920   -14.1290    25.0040 h1         1 PVQ       0.069200
     22 H5         -24.1000   -13.6910    24.8340 h1         1 PVQ       0.064700
     23 H6         -23.7970   -15.7520    20.7780 hn         1 PVQ       0.330500
     24 H7         -18.4110   -13.3870    21.7650 hn         1 PVQ       0.392000
     25 H8         -23.6370   -11.4700    24.8000 hn         1 PVQ       0.391500
     26 H9         -22.1080   -11.6490    25.2910 hn         1 PVQ       0.391500
     27 H12        -20.4100   -12.0950    23.4000 h1         1 PVQ       0.086700
     28 H13        -20.3970   -12.0900    20.1300 h1         1 PVQ       0.054200
@<TRIPOS>BOND
     1     1     5 1   
     2     1    10 1   
     3     1    14 2   
     4     2    10 1   
     5     2    11 1   
     6     2    15 2   
     7     3     4 1   
     8     3    12 1   
     9     3    18 1   
    10     3    27 1   
    11     4     5 2   
    12     4    11 1   
    13     5     6 1   
    14     6    12 1   
    15     6    19 1   
    16     6    28 1   
    17     7     8 1   
    18     7    11 1   
    19     7    20 1   
    20     7    21 1   
    21     8     9 1   
    22     8    13 1   
    23     8    22 1   
    24     9    16 1   
    25     9    17 1   
    26    10    23 1   
    27    12    24 1   
    28    13    25 1   
    29    13    26 1   
@<TRIPOS>SUBSTRUCTURE
     1 PVQ         1 TEMP              0 ****  ****    0 ROOT
