@<TRIPOS>MOLECULE
PVQ
   28    29     1     0     0
SMALL
No Charge or Current Charge


@<TRIPOS>ATOM
      1 C1         -22.1070   -14.7250    20.3120 c          1 PVQ       0.617200
      2 C2         -23.0030   -15.3240    22.5330 c          1 PVQ       0.606000
      3 C3         -20.1100   -12.8700    22.9140 c5         1 PVQ       0.172000
      4 C4         -21.1770   -13.7690    22.3670 cc         1 PVQ       0.118400
      5 C5         -21.1630   -13.8740    21.0260 cd         1 PVQ      -0.381400
      6 C6         -20.0660   -12.9740    20.5440 c5         1 PVQ       0.231000
      7 C7         -22.0810   -14.3930    24.6600 c3         1 PVQ       0.122000
      8 C8         -23.0600   -13.3390    25.2520 c3         1 PVQ      -0.009500
      9 C9         -23.2230   -13.6020    26.7970 c          1 PVQ       0.688000
     10 N1         -22.9500   -15.3820    21.1620 ns         1 PVQ      -0.472500
     11 N2         -22.0760   -14.4640    23.1720 n          1 PVQ      -0.266000
     12 N3         -19.1860   -12.7230    21.7330 n7         1 PVQ      -0.842400
     13 N4         -22.7060   -11.9170    24.8600 n8         1 PVQ      -1.014200
     14 O1         -22.1540   -14.8530    19.1010 o          1 PVQ      -0.578000
     15 O2         -23.8250   -15.9910    23.1420 o          1 PVQ      -0.546000
     16 O3         -24.3420   -13.8430    27.2290 o          1 PVQ      -0.718000
     17 O4         -22.2400   -13.4730    27.5130 o          1 PVQ      -0.718000
     18 H1         -19.5930   -13.2980    23.7840 h1         1 PVQ       0.086700
     19 H2         -19.5120   -13.4370    19.7140 h1         1 PVQ       0.054200
     20 H3         -22.3530   -15.3800    25.0570 h1         1 PVQ       0.069200
     21 H4         -21.0690   -14.1940    25.0320 h1         1 PVQ       0.069200
     22 H5         -24.0440   -13.5530    24.8100 h1         1 PVQ       0.064700
     23 H6         -23.6210   -15.9920    20.7250 hn         1 PVQ       0.330500
     24 H7         -18.5250   -13.5070    21.7720 hn         1 PVQ       0.392000
     25 H8         -23.4520   -11.2840    25.1770 hn         1 PVQ       0.391500
     26 H9         -21.8970   -11.6140    25.4190 hn         1 PVQ       0.391500
     27 H12        -20.5480   -11.9040    23.2010 h1         1 PVQ       0.086700
     28 H13        -20.5120   -12.0370    20.1790 h1         1 PVQ       0.054200
@<TRIPOS>BOND
     1     1     5 1   
     2     1    10 1   
     3     1    14 2   
     4     2    10 1   
     5     2    11 1   
     6     2    15 2   
     7     3     4 1   
     8     3    12 1   
     9     3    18 1   
    10     3    27 1   
    11     4     5 2   
    12     4    11 1   
    13     5     6 1   
    14     6    12 1   
    15     6    19 1   
    16     6    28 1   
    17     7     8 1   
    18     7    11 1   
    19     7    20 1   
    20     7    21 1   
    21     8     9 1   
    22     8    13 1   
    23     8    22 1   
    24     9    16 1   
    25     9    17 1   
    26    10    23 1   
    27    12    24 1   
    28    13    25 1   
    29    13    26 1   
@<TRIPOS>SUBSTRUCTURE
     1 PVQ         1 TEMP              0 ****  ****    0 ROOT
