@<TRIPOS>MOLECULE
PVR
   44    46     1     0     0
SMALL
No Charge or Current Charge


@<TRIPOS>ATOM
      1 N1           9.2420    -1.8600    23.0090 n3         1 PVR      -0.751600
      2 N3           6.8430     2.3700    18.5270 nb         1 PVR      -0.644000
      3 C4           9.9780    -1.6190    21.7210 c3         1 PVR       0.079800
      4 C5           9.4830    -0.4460    20.8360 c          1 PVR       0.598100
      5 C6           7.2220     0.5190    20.0730 ca         1 PVR      -0.070000
      6 C7           7.6750     1.5260    19.1840 ca         1 PVR       0.324900
      7 C8           5.5150     2.2350    18.7360 ca         1 PVR       0.312900
      8 C10          5.8310     0.3920    20.2850 ca         1 PVR      -0.050300
      9 C13          4.1740    -0.3360    22.2070 cx         1 PVR      -0.119400
     10 C15          8.7900    -3.4420    24.9240 c6         1 PVR       0.099000
     11 O1          10.2490     0.3390    20.2860 o          1 PVR      -0.588100
     12 N2           8.1010    -0.3730    20.7540 ns         1 PVR      -0.144000
     13 C11          5.2640    -0.6550    21.2080 cx         1 PVR      -0.097400
     14 C12          5.5680    -0.6520    22.6890 cx         1 PVR      -0.119400
     15 C9           4.9740     1.2670    19.5960 ca         1 PVR      -0.141000
     16 C3           9.3830    -0.7430    23.9800 c6         1 PVR       0.145800
     17 C2           8.5230    -0.9570    25.2550 c6         1 PVR       0.099000
     18 C14          9.6440    -3.1300    23.6650 c6         1 PVR       0.145800
     19 N            8.6440    -2.3060    25.8900 n          1 PVR      -0.421800
     20 C1           8.1050    -2.5140    27.1800 c          1 PVR       0.603100
     21 O            7.6210    -1.5870    27.8170 o          1 PVR      -0.608100
     22 C            8.2000    -3.9070    27.8070 c3         1 PVR      -0.173100
     23 H2           9.9040    -2.5120    21.0880 h1         1 PVR       0.070200
     24 H3          11.0450    -1.4500    21.9160 h1         1 PVR       0.070200
     25 H4           8.7320     1.6700    18.9720 h4         1 PVR       0.044100
     26 H5           4.8660     2.9230    18.1960 h4         1 PVR       0.021100
     27 H7           3.4000    -1.0820    22.3670 hc         1 PVR       0.075450
     28 H8           7.7860    -3.7430    24.5940 h1         1 PVR       0.061950
     29 H9           9.2410    -4.3100    25.4220 h1         1 PVR       0.061950
     30 H10          7.6290    -1.0760    21.3090 hn         1 PVR       0.181000
     31 H11          5.2040    -1.6290    20.7270 hc         1 PVR       0.080700
     32 H12          5.7370    -1.6120    23.1720 hc         1 PVR       0.075450
     33 H13          6.1620     0.1680    23.0850 hc         1 PVR       0.075450
     34 H14          3.8960     1.2040    19.7190 ha         1 PVR       0.122000
     35 H15         10.4360    -0.6380    24.2830 h1         1 PVR       0.048950
     36 H16          9.0870     0.2120    23.5230 h1         1 PVR       0.048950
     37 H17          8.7940    -0.1810    25.9860 h1         1 PVR       0.061950
     38 H18          7.4690    -0.7960    24.9940 h1         1 PVR       0.061950
     39 H19          9.5500    -3.9720    22.9640 h1         1 PVR       0.048950
     40 H20         10.7020    -3.0810    23.9630 h1         1 PVR       0.048950
     41 H21          7.8440    -3.9250    28.8430 hc         1 PVR       0.062033
     42 H22          7.6450    -4.6200    27.1880 hc         1 PVR       0.062033
     43 H23          9.2310    -4.2690    27.7290 hc         1 PVR       0.062033
     44 H6           3.8360     0.6950    22.2890 hc         1 PVR       0.075450
@<TRIPOS>BOND
     1     1     3 1   
     2     1    16 1   
     3     1    18 1   
     4     2     6 ar  
     5     2     7 ar  
     6     3     4 1   
     7     3    23 1   
     8     3    24 1   
     9     4    11 2   
    10     4    12 1   
    11     5     6 ar  
    12     5     8 ar  
    13     5    12 1   
    14     6    25 1   
    15     7    15 ar  
    16     7    26 1   
    17     8    13 1   
    18     8    15 ar  
    19     9    13 1   
    20     9    14 1   
    21     9    27 1   
    22     9    44 1   
    23    10    18 1   
    24    10    19 1   
    25    10    28 1   
    26    10    29 1   
    27    12    30 1   
    28    13    14 1   
    29    13    31 1   
    30    14    32 1   
    31    14    33 1   
    32    15    34 1   
    33    16    17 1   
    34    16    35 1   
    35    16    36 1   
    36    17    19 1   
    37    17    37 1   
    38    17    38 1   
    39    18    39 1   
    40    18    40 1   
    41    19    20 1   
    42    20    21 2   
    43    20    22 1   
    44    22    41 1   
    45    22    42 1   
    46    22    43 1   
@<TRIPOS>SUBSTRUCTURE
     1 PVR         1 TEMP              0 ****  ****    0 ROOT
