@<TRIPOS>MOLECULE
PVR
   44    46     1     0     0
SMALL
abcg2


@<TRIPOS>ATOM
      1 N1           9.2400    -1.7220    23.1020 n3         1 PVR      -0.751600
      2 N3           6.8420     1.1460    17.9540 nb         1 PVR      -0.644000
      3 C4          10.1750    -1.1170    22.1710 c3         1 PVR       0.079800
      4 C5           9.5120    -0.2630    21.0930 c          1 PVR       0.598100
      5 C6           7.2790     0.1460    20.0950 ca         1 PVR      -0.070000
      6 C7           7.6690     0.5570    18.8200 ca         1 PVR       0.324900
      7 C8           5.5770     1.3340    18.3370 ca         1 PVR       0.312900
      8 C10          5.9480     0.3470    20.5020 ca         1 PVR      -0.050300
      9 C13          4.2520     0.4830    22.4910 cx         1 PVR      -0.119400
     10 C15          8.6250    -3.6430    24.4930 c6         1 PVR       0.099000
     11 O1          10.1720     0.5100    20.4080 o          1 PVR      -0.588100
     12 N2           8.1800    -0.4760    20.9720 ns         1 PVR      -0.144000
     13 C11          5.5080    -0.0500    21.8650 cx         1 PVR      -0.097400
     14 C12          5.5840     0.9600    22.9930 cx         1 PVR      -0.119400
     15 C9           5.0960     0.9470    19.5800 ca         1 PVR      -0.141000
     16 C3           8.8570    -0.8100    24.1820 c6         1 PVR       0.145800
     17 C2           7.7610    -1.4320    25.0350 c6         1 PVR       0.099000
     18 C14          9.7090    -2.9980    23.6400 c6         1 PVR       0.145800
     19 N            8.1940    -2.7280    25.5430 n          1 PVR      -0.421800
     20 C1           8.1850    -2.9980    26.8690 c          1 PVR       0.603100
     21 O            7.7910    -2.1730    27.7000 o          1 PVR      -0.608100
     22 C            8.6810    -4.3570    27.3150 c3         1 PVR      -0.173100
     23 H2          10.7110    -1.9070    21.6390 h1         1 PVR       0.070200
     24 H3          10.9320    -0.4920    22.6620 h1         1 PVR       0.070200
     25 H4           8.6880     0.4010    18.4980 h4         1 PVR       0.044100
     26 H5           4.9150     1.8060    17.6190 h4         1 PVR       0.021100
     27 H7           3.6870    -0.1980    23.1130 hc         1 PVR       0.075450
     28 H8           7.7630    -3.8850    23.8620 h1         1 PVR       0.061950
     29 H9           9.0010    -4.5650    24.9220 h1         1 PVR       0.061950
     30 H10          7.8190    -1.1180    21.6710 hn         1 PVR       0.181000
     31 H11          5.7690    -1.0640    22.1480 hc         1 PVR       0.080700
     32 H12          5.9310     0.6150    23.9560 hc         1 PVR       0.075450
     33 H13          5.8900     1.9630    22.7270 hc         1 PVR       0.075450
     34 H14          4.0570     1.1170    19.8260 ha         1 PVR       0.122000
     35 H15          9.7250    -0.5700    24.8150 h1         1 PVR       0.048950
     36 H16          8.4910     0.1220    23.7500 h1         1 PVR       0.048950
     37 H17          7.5190    -0.7900    25.8760 h1         1 PVR       0.061950
     38 H18          6.8610    -1.5750    24.4290 h1         1 PVR       0.061950
     39 H19          9.9530    -3.6610    22.8090 h1         1 PVR       0.048950
     40 H20         10.6150    -2.8620    24.2510 h1         1 PVR       0.048950
     41 H21          8.5990    -4.4070    28.3970 hc         1 PVR       0.062033
     42 H22          8.0910    -5.1620    26.8740 hc         1 PVR       0.062033
     43 H23          9.7230    -4.5120    27.0280 hc         1 PVR       0.062033
     44 H6           3.6490     1.1810    21.9270 hc         1 PVR       0.075450
@<TRIPOS>BOND
     1     1     3 1   
     2     1    16 1   
     3     1    18 1   
     4     2     6 ar  
     5     2     7 ar  
     6     3     4 1   
     7     3    23 1   
     8     3    24 1   
     9     4    11 2   
    10     4    12 1   
    11     5     6 ar  
    12     5     8 ar  
    13     5    12 1   
    14     6    25 1   
    15     7    15 ar  
    16     7    26 1   
    17     8    13 1   
    18     8    15 ar  
    19     9    13 1   
    20     9    14 1   
    21     9    27 1   
    22     9    44 1   
    23    10    18 1   
    24    10    19 1   
    25    10    28 1   
    26    10    29 1   
    27    12    30 1   
    28    13    14 1   
    29    13    31 1   
    30    14    32 1   
    31    14    33 1   
    32    15    34 1   
    33    16    17 1   
    34    16    35 1   
    35    16    36 1   
    36    17    19 1   
    37    17    37 1   
    38    17    38 1   
    39    18    39 1   
    40    18    40 1   
    41    19    20 1   
    42    20    21 2   
    43    20    22 1   
    44    22    41 1   
    45    22    42 1   
    46    22    43 1   
@<TRIPOS>SUBSTRUCTURE
     1 PVR         1 TEMP              0 ****  ****    0 ROOT
