@<TRIPOS>MOLECULE
PVS
   19    19     1     0     0
SMALL
No Charge or Current Charge


@<TRIPOS>ATOM
      1 S            1.2970     0.5080    -0.4400 sy         1 PVS       0.998600
      2 O1           1.4670     1.9630    -0.5410 o          1 PVS      -0.527500
      3 O2           1.7730    -0.3960    -1.4960 o          1 PVS      -0.527500
      4 C7           2.0470    -0.0130     1.1020 ce         1 PVS      -0.394100
      5 C1          -0.4490     0.1570    -0.1470 ca         1 PVS      -0.261500
      6 C2          -0.9870    -1.1010    -0.4920 ca         1 PVS      -0.016000
      7 C3          -2.3460    -1.3730    -0.2540 ca         1 PVS      -0.129000
      8 C4          -3.1710    -0.3970     0.3300 ca         1 PVS      -0.057000
      9 C5          -2.6360     0.8550     0.6780 ca         1 PVS      -0.129000
     10 C6          -1.2780     1.1340     0.4430 ca         1 PVS      -0.016000
     11 H2          -0.3600    -1.8690    -0.9410 ha         1 PVS       0.136000
     12 H3          -2.7590    -2.3430    -0.5210 ha         1 PVS       0.120000
     13 H4          -4.2220    -0.6100     0.5130 ha         1 PVS       0.117000
     14 H5          -3.2730     1.6100     1.1320 ha         1 PVS       0.120000
     15 H6          -0.8770     2.1080     0.7210 ha         1 PVS       0.136000
     16 H7           2.2060     0.8260     1.7820 h4         1 PVS       0.220000
     17 C8           2.3600    -1.3060     1.3690 c2         1 PVS      -0.149000
     18 H8           2.8130    -1.6020     2.3170 ha         1 PVS       0.180000
     19 H8A          2.1770    -2.1100     0.6540 ha         1 PVS       0.180000
@<TRIPOS>BOND
     1     1     2 2   
     2     1     3 2   
     3     1     4 1   
     4     1     5 1   
     5     4    16 1   
     6     4    17 2   
     7     5     6 ar  
     8     5    10 ar  
     9     6     7 ar  
    10     6    11 1   
    11     7     8 ar  
    12     7    12 1   
    13     8     9 ar  
    14     8    13 1   
    15     9    10 ar  
    16     9    14 1   
    17    10    15 1   
    18    17    18 1   
    19    17    19 1   
@<TRIPOS>SUBSTRUCTURE
     1 PVS         1 TEMP              0 ****  ****    0 ROOT
