@<TRIPOS>MOLECULE
PVS
   19    19     1     0     0
SMALL
bcc


@<TRIPOS>ATOM
      1 S            1.2180     0.3440    -0.3540 sy         1 PVS       1.140200
      2 O1           1.4560     1.7760    -0.5170 o          1 PVS      -0.598300
      3 O2           1.6740    -0.5800    -1.3890 o          1 PVS      -0.598300
      4 C7           1.9200    -0.1390     1.1900 ce         1 PVS      -0.344100
      5 C1          -0.5210     0.0980    -0.1080 ca         1 PVS      -0.261500
      6 C2          -1.0880    -1.1230    -0.4500 ca         1 PVS      -0.034000
      7 C3          -2.4470    -1.3090    -0.2510 ca         1 PVS      -0.147000
      8 C4          -3.2200    -0.2870     0.2850 ca         1 PVS      -0.075000
      9 C5          -2.6390     0.9290     0.6220 ca         1 PVS      -0.147000
     10 C6          -1.2810     1.1300     0.4250 ca         1 PVS      -0.034000
     11 H2          -0.4890    -1.9190    -0.8710 ha         1 PVS       0.154000
     12 H3          -2.9020    -2.2530    -0.5180 ha         1 PVS       0.138000
     13 H4          -4.2800    -0.4380     0.4400 ha         1 PVS       0.135000
     14 H5          -3.2420     1.7260     1.0360 ha         1 PVS       0.138000
     15 H6          -0.8310     2.0790     0.6840 ha         1 PVS       0.154000
     16 H7           1.6750     0.5110     2.0210 h4         1 PVS       0.170000
     17 C8           2.7020    -1.2010     1.2860 c2         1 PVS      -0.049000
     18 H8           3.1450    -1.4640     2.2370 ha         1 PVS       0.130000
     19 H8A          2.9320    -1.8370     0.4420 ha         1 PVS       0.130000
@<TRIPOS>BOND
     1     1     2 2   
     2     1     3 2   
     3     1     4 1   
     4     1     5 1   
     5     4    16 1   
     6     4    17 2   
     7     5     6 ar  
     8     5    10 ar  
     9     6     7 ar  
    10     6    11 1   
    11     7     8 ar  
    12     7    12 1   
    13     8     9 ar  
    14     8    13 1   
    15     9    10 ar  
    16     9    14 1   
    17    10    15 1   
    18    17    18 1   
    19    17    19 1   
@<TRIPOS>SUBSTRUCTURE
     1 PVS         1 TEMP              0 ****  ****    0 ROOT
