@<TRIPOS>MOLECULE
PVT
   44    47     1     0     0
SMALL
abcg2


@<TRIPOS>ATOM
      1 C1          27.9040   -10.5380    14.6700 ca         1 PVT      -0.149300
      2 C2          27.9460    -9.5480    13.6980 ca         1 PVT      -0.063000
      3 C3          28.5740    -9.8150    12.4910 ca         1 PVT      -0.159000
      4 C7          27.2520   -10.3420    16.0160 c3         1 PVT       0.286100
      5 C9          23.5700   -10.5740    14.3540 ca         1 PVT       0.445900
      6 C11         22.9610    -8.4740    14.8770 ca         1 PVT       0.230900
      7 C12         24.1910    -8.2190    15.4570 ca         1 PVT      -0.456300
      8 C13         25.0990    -9.3110    15.4770 ca         1 PVT       0.471900
      9 C19         26.0430   -14.0530    13.0400 ca         1 PVT      -0.126000
     10 C20         25.3400   -12.8750    13.2770 ca         1 PVT      -0.080000
     11 C21         23.9740   -12.8960    13.5520 ca         1 PVT       0.270000
     12 C22         23.2890   -14.1190    13.5680 ca         1 PVT      -0.097000
     13 C24         23.9790   -15.2810    13.3160 ca         1 PVT      -0.123300
     14 N29         23.2190   -11.7330    13.7530 nu         1 PVT      -0.923900
     15 C4          29.1430   -11.0640    12.2980 ca         1 PVT       0.332900
     16 N5          29.1160   -12.0200    13.2210 nb         1 PVT      -0.670000
     17 C6          28.5100   -11.7540    14.3700 ca         1 PVT       0.338900
     18 N8          26.3090    -9.2520    16.0560 nu         1 PVT      -0.924100
     19 N10         22.6220    -9.6280    14.3350 nb         1 PVT      -0.280000
     20 N14         24.7700   -10.4640    14.9050 nb         1 PVT      -0.322000
     21 C23         25.3480   -15.2450    13.0600 ca         1 PVT      -0.044000
     22 C25         23.5320   -16.7070    13.2630 c5         1 PVT      -0.120100
     23 C26         24.8140   -17.4670    12.9470 c          1 PVT       0.565000
     24 N27         25.8080   -16.5400    12.8500 ns         1 PVT      -0.147000
     25 H1          27.4900    -8.5810    13.8710 ha         1 PVT       0.125000
     26 H2          28.6190    -9.0690    11.7090 ha         1 PVT       0.127000
     27 H3          26.7710   -11.2710    16.3260 h1         1 PVT       0.067700
     28 H4          28.0150   -10.1200    16.7620 h1         1 PVT       0.067700
     29 H5          22.2020    -7.7010    14.8420 h4         1 PVT       0.036100
     30 H6          27.1040   -14.0170    12.8330 ha         1 PVT       0.136000
     31 H7          25.8720   -11.9370    13.2460 ha         1 PVT       0.140000
     32 H8          22.2260   -14.1420    13.7790 ha         1 PVT       0.121000
     33 H9          22.2540   -11.7660    13.4610 hn         1 PVT       0.517000
     34 H10         29.6370   -11.3040    11.3630 h4         1 PVT       0.021100
     35 H11         28.4890   -12.5580    15.1000 h4         1 PVT       0.018100
     36 H12         26.6050    -8.4200    16.5330 hn         1 PVT       0.512000
     37 H13         22.7850   -16.8990    12.4880 hc         1 PVT       0.090700
     38 H14         23.1080   -17.0640    14.2050 hc         1 PVT       0.090700
     39 H15         26.7670   -16.7770    12.6430 hn         1 PVT       0.174000
     40 C15         24.5340    -6.8730    15.9720 c3         1 PVT       0.382300
     41 O28         24.9420   -18.6640    12.8070 o          1 PVT      -0.525000
     42 F16         23.5180    -6.0130    15.8650 f          1 PVT      -0.119667
     43 F17         24.8930    -6.8880    17.2700 f          1 PVT      -0.119667
     44 F18         25.5750    -6.3230    15.3170 f          1 PVT      -0.119667
@<TRIPOS>BOND
     1     1     2 ar  
     2     1     4 1   
     3     1    17 ar  
     4     2     3 ar  
     5     2    25 1   
     6     3    15 ar  
     7     3    26 1   
     8     4    18 1   
     9     4    27 1   
    10     4    28 1   
    11     5    14 1   
    12     5    19 ar  
    13     5    20 ar  
    14     6     7 ar  
    15     6    19 ar  
    16     6    29 1   
    17     7     8 ar  
    18     7    40 1   
    19     8    18 1   
    20     8    20 ar  
    21     9    10 ar  
    22     9    21 ar  
    23     9    30 1   
    24    10    11 ar  
    25    10    31 1   
    26    11    12 ar  
    27    11    14 1   
    28    12    13 ar  
    29    12    32 1   
    30    13    21 ar  
    31    13    22 1   
    32    14    33 1   
    33    15    16 ar  
    34    15    34 1   
    35    16    17 ar  
    36    17    35 1   
    37    18    36 1   
    38    21    24 1   
    39    22    23 1   
    40    22    37 1   
    41    22    38 1   
    42    23    24 1   
    43    23    41 2   
    44    24    39 1   
    45    40    42 1   
    46    40    43 1   
    47    40    44 1   
@<TRIPOS>SUBSTRUCTURE
     1 PVT         1 TEMP              0 ****  ****    0 ROOT
