@<TRIPOS>MOLECULE
PVT
   44    47     1     0     0
SMALL
No Charge or Current Charge


@<TRIPOS>ATOM
      1 C1          28.0140   -10.3800    14.7410 ca         1 PVT      -0.149300
      2 C2          28.1950    -9.3460    13.8000 ca         1 PVT      -0.063000
      3 C3          28.7630    -9.6680    12.5570 ca         1 PVT      -0.159000
      4 C7          27.4160   -10.1270    16.1200 c3         1 PVT       0.286100
      5 C9          23.5800   -10.5980    14.3800 ca         1 PVT       0.445900
      6 C11         22.9450    -8.4490    14.7940 ca         1 PVT       0.230900
      7 C12         24.1830    -8.2000    15.4150 ca         1 PVT      -0.456300
      8 C13         25.0800    -9.2760    15.4700 ca         1 PVT       0.471900
      9 C19         25.9970   -14.1820    12.9160 ca         1 PVT      -0.126000
     10 C20         25.3080   -12.9850    13.2120 ca         1 PVT      -0.080000
     11 C21         23.9310   -13.0040    13.5610 ca         1 PVT       0.270000
     12 C22         23.2350   -14.2340    13.5880 ca         1 PVT      -0.097000
     13 C24         23.9340   -15.4140    13.2930 ca         1 PVT      -0.123300
     14 N29         23.2270   -11.8260    13.8440 nu         1 PVT      -0.923900
     15 C4          29.1380   -10.9960    12.2970 ca         1 PVT       0.332900
     16 N5          28.9780   -11.9930    13.1970 nb         1 PVT      -0.670000
     17 C6          28.4250   -11.6810    14.3930 ca         1 PVT       0.338900
     18 N8          26.3180    -9.1450    16.0770 nu         1 PVT      -0.924100
     19 N10         22.6400    -9.6510    14.2780 nb         1 PVT      -0.280000
     20 N14         24.7830   -10.4760    14.9550 nb         1 PVT      -0.322000
     21 C23         25.2710   -15.3740    12.9730 ca         1 PVT      -0.044000
     22 C25         23.4400   -16.8580    13.2570 c5         1 PVT      -0.120100
     23 C26         24.7180   -17.6630    12.8580 c          1 PVT       0.565000
     24 N27         25.6800   -16.6800    12.7310 ns         1 PVT      -0.147000
     25 H1          27.9020    -8.3220    14.0240 ha         1 PVT       0.125000
     26 H2          28.9170    -8.9020    11.8020 ha         1 PVT       0.127000
     27 H3          27.0540   -11.0740    16.5460 h1         1 PVT       0.067700
     28 H4          28.2150    -9.7630    16.7800 h1         1 PVT       0.067700
     29 H5          22.1760    -7.6830    14.7010 h4         1 PVT       0.036100
     30 H6          27.0500   -14.1730    12.6460 ha         1 PVT       0.136000
     31 H7          25.8390   -12.0420    13.1480 ha         1 PVT       0.140000
     32 H8          22.1790   -14.2710    13.8410 ha         1 PVT       0.121000
     33 H9          22.2220   -11.8950    13.6870 hn         1 PVT       0.517000
     34 H10         29.5820   -11.2710    11.3410 h4         1 PVT       0.021100
     35 H11         28.3090   -12.5070    15.0950 h4         1 PVT       0.018100
     36 H12         26.4980    -8.2340    16.4930 hn         1 PVT       0.512000
     37 H13         22.6560   -17.0460    12.5180 hc         1 PVT       0.090700
     38 H14         23.0720   -17.2300    14.2190 hc         1 PVT       0.090700
     39 H15         26.6330   -16.9010    12.4730 hn         1 PVT       0.174000
     40 C15         24.5030    -6.8230    15.9890 c3         1 PVT       0.382300
     41 O28         24.8740   -18.8660    12.6870 o          1 PVT      -0.525000
     42 F16         23.4990    -5.9340    15.8120 f          1 PVT      -0.119667
     43 F17         24.7390    -6.8780    17.3190 f          1 PVT      -0.119667
     44 F18         25.6010    -6.2850    15.4110 f          1 PVT      -0.119667
@<TRIPOS>BOND
     1     1     2 ar  
     2     1     4 1   
     3     1    17 ar  
     4     2     3 ar  
     5     2    25 1   
     6     3    15 ar  
     7     3    26 1   
     8     4    18 1   
     9     4    27 1   
    10     4    28 1   
    11     5    14 1   
    12     5    19 ar  
    13     5    20 ar  
    14     6     7 ar  
    15     6    19 ar  
    16     6    29 1   
    17     7     8 ar  
    18     7    40 1   
    19     8    18 1   
    20     8    20 ar  
    21     9    10 ar  
    22     9    21 ar  
    23     9    30 1   
    24    10    11 ar  
    25    10    31 1   
    26    11    12 ar  
    27    11    14 1   
    28    12    13 ar  
    29    12    32 1   
    30    13    21 ar  
    31    13    22 1   
    32    14    33 1   
    33    15    16 ar  
    34    15    34 1   
    35    16    17 ar  
    36    17    35 1   
    37    18    36 1   
    38    21    24 1   
    39    22    23 1   
    40    22    37 1   
    41    22    38 1   
    42    23    24 1   
    43    23    41 2   
    44    24    39 1   
    45    40    42 1   
    46    40    43 1   
    47    40    44 1   
@<TRIPOS>SUBSTRUCTURE
     1 PVT         1 TEMP              0 ****  ****    0 ROOT
