@<TRIPOS>MOLECULE
PVU
   43    45     1     0     0
SMALL
No Charge or Current Charge


@<TRIPOS>ATOM
      1 C1           1.8900    25.9000    34.4560 ca         1 PVU       0.120000
      2 C2           0.8150    26.8010    34.5240 ca         1 PVU      -0.095000
      3 C4          -0.6500    24.9880    35.2300 ca         1 PVU      -0.102000
      4 C8           0.1410    20.0300    36.8220 ca         1 PVU      -0.194000
      5 C9           0.0760    18.8020    37.5000 ca         1 PVU      -0.063000
      6 C10          0.6720    18.6660    38.7610 ca         1 PVU      -0.140000
      7 C11          1.3300    19.7570    39.3500 ca         1 PVU      -0.076000
      8 C12          1.3920    21.0000    38.6860 ca         1 PVU      -0.154300
      9 C13          2.1090    22.1680    39.3620 c3         1 PVU       0.219100
     10 C14          0.2190    23.3980    40.5170 c3         1 PVU       0.218100
     11 C15         -0.9530    22.6540    39.8960 ca         1 PVU      -0.158300
     12 C16         -1.4930    21.5120    40.5200 ca         1 PVU       0.340900
     13 C17         -3.0810    21.2410    38.8560 ca         1 PVU       0.328900
     14 C18         -2.6150    22.3740    38.1680 ca         1 PVU      -0.174000
     15 C19         -1.5360    23.1010    38.6950 ca         1 PVU      -0.062000
     16 Cl1          3.4830    26.4720    33.9730 cl         1 PVU      -0.209000
     17 C3          -0.4570    26.3440    34.9120 ca         1 PVU      -0.104000
     18 C5           0.4270    24.0800    35.1620 ca         1 PVU      -0.085300
     19 C6           0.2250    22.6130    35.5130 c3         1 PVU       0.208900
     20 O1           0.8790    22.3560    36.7660 os         1 PVU      -0.354100
     21 C7           0.8010    21.1350    37.4080 ca         1 PVU       0.152100
     22 N1           1.4410    22.5690    40.6230 n7         1 PVU      -0.868400
     23 N2          -2.5400    20.8140    40.0200 nb         1 PVU      -0.662000
     24 C20          1.6990    24.5450    34.7730 ca         1 PVU      -0.075000
     25 H1           0.9670    27.8480    34.2770 ha         1 PVU       0.132000
     26 H2          -1.6370    24.6440    35.5310 ha         1 PVU       0.116000
     27 H3          -0.3250    20.1030    35.8440 ha         1 PVU       0.115000
     28 H4          -0.4340    17.9550    37.0450 ha         1 PVU       0.113000
     29 H5           0.6260    17.7130    39.2840 ha         1 PVU       0.118000
     30 H6           1.7920    19.6360    40.3280 ha         1 PVU       0.111000
     31 H7           3.1360    21.8420    39.5790 h1         1 PVU       0.063200
     32 H8           2.1980    23.0270    38.6820 h1         1 PVU       0.063200
     33 H9           0.4260    24.3050    39.9310 h1         1 PVU       0.060200
     34 H10         -0.0870    23.7380    41.5170 h1         1 PVU       0.060200
     35 H11         -1.0760    21.1430    41.4570 h4         1 PVU       0.014100
     36 H12         -3.9180    20.6620    38.4680 h4         1 PVU       0.016100
     37 H13         -3.0880    22.6780    37.2390 ha         1 PVU       0.116000
     38 H14         -1.1560    23.9800    38.1790 ha         1 PVU       0.122000
     39 H15         -1.2920    27.0400    34.9660 ha         1 PVU       0.121000
     40 H16         -0.8500    22.3980    35.5870 h1         1 PVU       0.047700
     41 H17          0.6470    21.9850    34.7180 h1         1 PVU       0.047700
     42 H18          1.2280    21.7210    41.1580 hn         1 PVU       0.412000
     43 H20          2.5400    23.8580    34.7220 ha         1 PVU       0.141000
@<TRIPOS>BOND
     1     1     2 ar  
     2     1    16 1   
     3     1    24 ar  
     4     2    17 ar  
     5     2    25 1   
     6     3    17 ar  
     7     3    18 ar  
     8     3    26 1   
     9     4     5 ar  
    10     4    21 ar  
    11     4    27 1   
    12     5     6 ar  
    13     5    28 1   
    14     6     7 ar  
    15     6    29 1   
    16     7     8 ar  
    17     7    30 1   
    18     8     9 1   
    19     8    21 ar  
    20     9    22 1   
    21     9    31 1   
    22     9    32 1   
    23    10    11 1   
    24    10    22 1   
    25    10    33 1   
    26    10    34 1   
    27    11    12 ar  
    28    11    15 ar  
    29    12    23 ar  
    30    12    35 1   
    31    13    14 ar  
    32    13    23 ar  
    33    13    36 1   
    34    14    15 ar  
    35    14    37 1   
    36    15    38 1   
    37    17    39 1   
    38    18    19 1   
    39    18    24 ar  
    40    19    20 1   
    41    19    40 1   
    42    19    41 1   
    43    20    21 1   
    44    22    42 1   
    45    24    43 1   
@<TRIPOS>SUBSTRUCTURE
     1 PVU         1 TEMP              0 ****  ****    0 ROOT
