@<TRIPOS>MOLECULE
PVU
   43    45     1     0     0
SMALL
abcg2


@<TRIPOS>ATOM
      1 C1           1.6590    25.9010    35.0660 ca         1 PVU       0.120000
      2 C2           0.5450    26.6720    34.7600 ca         1 PVU      -0.095000
      3 C4          -0.8290    24.7120    35.0690 ca         1 PVU      -0.102000
      4 C8           0.0900    19.9470    36.9070 ca         1 PVU      -0.194000
      5 C9           0.0470    18.7180    37.5580 ca         1 PVU      -0.063000
      6 C10          0.7270    18.5300    38.7540 ca         1 PVU      -0.140000
      7 C11          1.4470    19.5900    39.2960 ca         1 PVU      -0.076000
      8 C12          1.4950    20.8370    38.6810 ca         1 PVU      -0.154300
      9 C13          2.2440    21.9750    39.3470 c3         1 PVU       0.219100
     10 C14          0.4440    23.4740    40.1980 c3         1 PVU       0.218100
     11 C15         -0.8060    22.8450    39.6090 ca         1 PVU      -0.158300
     12 C16         -1.3410    21.6610    40.1140 ca         1 PVU       0.340900
     13 C17         -3.0590    21.6570    38.6050 ca         1 PVU       0.328900
     14 C18         -2.6210    22.8450    38.0370 ca         1 PVU      -0.174000
     15 C19         -1.4780    23.4440    38.5500 ca         1 PVU      -0.062000
     16 CL1          3.2430    26.6550    35.0730 cl         1 PVU      -0.209000
     17 C3          -0.7040    26.0630    34.7610 ca         1 PVU      -0.104000
     18 C5           0.2960    23.9510    35.3710 ca         1 PVU      -0.085300
     19 C6           0.1610    22.4910    35.6950 c3         1 PVU       0.208900
     20 O1           0.8910    22.2380    36.8970 os         1 PVU      -0.354100
     21 C7           0.8120    21.0030    37.4650 ca         1 PVU       0.152100
     22 N1           1.5830    22.6110    40.4920 n7         1 PVU      -0.868400
     23 N2          -2.4370    21.0690    39.6330 nb         1 PVU      -0.662000
     24 C20          1.5550    24.5520    35.3660 ca         1 PVU      -0.075000
     25 H1           0.6530    27.7230    34.5300 ha         1 PVU       0.132000
     26 H2          -1.8080    24.2500    35.0860 ha         1 PVU       0.116000
     27 H3          -0.4420    20.0740    35.9770 ha         1 PVU       0.115000
     28 H4          -0.5210    17.9070    37.1180 ha         1 PVU       0.113000
     29 H5           0.7010    17.5730    39.2580 ha         1 PVU       0.118000
     30 H6           1.9800    19.4560    40.2310 ha         1 PVU       0.111000
     31 H7           3.1980    21.5840    39.7090 h1         1 PVU       0.063200
     32 H8           2.4660    22.7550    38.6200 h1         1 PVU       0.063200
     33 H9           0.7840    24.2580    39.5170 h1         1 PVU       0.060200
     34 H10          0.1700    23.9710    41.1340 h1         1 PVU       0.060200
     35 H11         -0.8510    21.1550    40.9380 h4         1 PVU       0.014100
     36 H12         -3.9430    21.1570    38.2230 h4         1 PVU       0.016100
     37 H13         -3.1560    23.2830    37.2050 ha         1 PVU       0.116000
     38 H14         -1.0970    24.3600    38.1160 ha         1 PVU       0.122000
     39 H15         -1.5830    26.6500    34.5290 ha         1 PVU       0.121000
     40 H16         -0.8910    22.2350    35.8320 h1         1 PVU       0.047700
     41 H17          0.5650    21.8720    34.8870 h1         1 PVU       0.047700
     42 H18          1.3430    21.9170    41.1900 hn         1 PVU       0.412000
     43 H20          2.4380    23.9760    35.6020 ha         1 PVU       0.141000
@<TRIPOS>BOND
     1     1     2 ar  
     2     1    16 1   
     3     1    24 ar  
     4     2    17 ar  
     5     2    25 1   
     6     3    17 ar  
     7     3    18 ar  
     8     3    26 1   
     9     4     5 ar  
    10     4    21 ar  
    11     4    27 1   
    12     5     6 ar  
    13     5    28 1   
    14     6     7 ar  
    15     6    29 1   
    16     7     8 ar  
    17     7    30 1   
    18     8     9 1   
    19     8    21 ar  
    20     9    22 1   
    21     9    31 1   
    22     9    32 1   
    23    10    11 1   
    24    10    22 1   
    25    10    33 1   
    26    10    34 1   
    27    11    12 ar  
    28    11    15 ar  
    29    12    23 ar  
    30    12    35 1   
    31    13    14 ar  
    32    13    23 ar  
    33    13    36 1   
    34    14    15 ar  
    35    14    37 1   
    36    15    38 1   
    37    17    39 1   
    38    18    19 1   
    39    18    24 ar  
    40    19    20 1   
    41    19    40 1   
    42    19    41 1   
    43    20    21 1   
    44    22    42 1   
    45    24    43 1   
@<TRIPOS>SUBSTRUCTURE
     1 PVU         1 TEMP              0 ****  ****    0 ROOT
