@<TRIPOS>MOLECULE
PVV
   45    47     1     0     0
SMALL
abcg2


@<TRIPOS>ATOM
      1 C4           2.3430     1.1750     0.3920 ca         1 PVV      -0.067300
      2 C5           3.6800     0.9380     0.7360 ca         1 PVV      -0.171000
      3 C6           1.7040     2.4780     0.7940 c6         1 PVV      -0.069100
      4 N1          -2.8420    -0.4250     0.6510 ns         1 PVV      -0.470400
      5 C7           0.4650     2.7550    -0.0420 c6         1 PVV       0.154800
      6 C8           0.1920     0.4360    -0.7440 c6         1 PVV       0.251500
      7 N2          -4.8140    -0.0910     1.8440 nc         1 PVV      -0.713000
      8 C9          -0.6510    -0.7890    -0.3190 c3         1 PVV      -0.149400
      9 C10         -2.1320    -0.5740    -0.5030 c          1 PVV       0.620100
     10 C11         -4.1990    -0.2180     0.7120 cd         1 PVV       0.535300
     11 C12         -6.5540     0.1260     0.3480 cd         1 PVV      -0.318000
     12 C13         -6.1520     0.1040     1.6400 cc         1 PVV       0.301900
     13 C14          0.1590     0.6190    -2.2660 c3         1 PVV      -0.078100
     14 C15          3.6570    -3.3280    -1.4010 c3         1 PVV       0.144900
     15 N           -0.4130     1.5990    -0.1010 n7         1 PVV      -0.848400
     16 C            4.3270    -0.2280     0.3760 ca         1 PVV       0.120100
     17 O           -2.6940    -0.5460    -1.5830 o          1 PVV      -0.570100
     18 C1           3.6230    -1.2010    -0.3610 ca         1 PVV       0.112100
     19 C16          6.3610     0.4170     1.4000 c3         1 PVV       0.144900
     20 C2           2.3040    -0.9660    -0.6970 ca         1 PVV      -0.163000
     21 C3           1.6430     0.2110    -0.3180 ca         1 PVV      -0.113300
     22 O1           4.3200    -2.3090    -0.6820 os         1 PVV      -0.320100
     23 O2           5.6080    -0.5270     0.6670 os         1 PVV      -0.319100
     24 S           -5.2020    -0.1110    -0.6940 ss         1 PVV       0.060600
     25 H1           4.2060     1.7020     1.2940 ha         1 PVV       0.119000
     26 H2           1.4240     2.4440     1.8530 hc         1 PVV       0.053200
     27 H3           2.4240     3.2930     0.6960 hc         1 PVV       0.053200
     28 H4          -2.3740    -0.4870     1.5440 hn         1 PVV       0.336500
     29 H5          -0.0940     3.5970     0.3710 h1         1 PVV       0.060700
     30 H6           0.7500     3.0390    -1.0570 h1         1 PVV       0.060700
     31 H7          -0.3710    -1.6640    -0.9070 hc         1 PVV       0.069200
     32 H8          -0.4300    -1.0280     0.7240 hc         1 PVV       0.069200
     33 H9          -7.5500     0.2630    -0.0430 h4         1 PVV       0.158000
     34 H10         -6.8040     0.2280     2.4930 h4         1 PVV       0.037100
     35 H11         -0.8460     0.8420    -2.6180 hc         1 PVV       0.048700
     36 H12          0.8160     1.4330    -2.5750 hc         1 PVV       0.048700
     37 H13          0.5060    -0.2830    -2.7720 hc         1 PVV       0.048700
     38 H14          4.3790    -4.1270    -1.5440 h1         1 PVV       0.040033
     39 H15          2.7990    -3.7230    -0.8500 h1         1 PVV       0.040033
     40 H16          3.3150    -2.9830    -2.3810 h1         1 PVV       0.040033
     41 H17         -0.6600     1.3620     0.8550 hn         1 PVV       0.405000
     42 H19          6.4630     1.3640     0.8630 h1         1 PVV       0.040700
     43 H20          5.9240     0.6160     2.3820 h1         1 PVV       0.040700
     44 H21          7.3490    -0.0150     1.5380 h1         1 PVV       0.040700
     45 H22          1.7640    -1.7050    -1.2730 ha         1 PVV       0.118000
@<TRIPOS>BOND
     1     1     2 ar  
     2     1     3 1   
     3     1    21 ar  
     4     2    16 ar  
     5     2    25 1   
     6     3     5 1   
     7     3    26 1   
     8     3    27 1   
     9     4     9 1   
    10     4    10 1   
    11     4    28 1   
    12     5    15 1   
    13     5    29 1   
    14     5    30 1   
    15     6     8 1   
    16     6    13 1   
    17     6    15 1   
    18     6    21 1   
    19     7    10 2   
    20     7    12 1   
    21     8     9 1   
    22     8    31 1   
    23     8    32 1   
    24     9    17 2   
    25    10    24 1   
    26    11    12 2   
    27    11    24 1   
    28    11    33 1   
    29    12    34 1   
    30    13    35 1   
    31    13    36 1   
    32    13    37 1   
    33    14    22 1   
    34    14    38 1   
    35    14    39 1   
    36    14    40 1   
    37    15    41 1   
    38    16    18 ar  
    39    16    23 1   
    40    18    20 ar  
    41    18    22 1   
    42    19    23 1   
    43    19    42 1   
    44    19    43 1   
    45    19    44 1   
    46    20    21 ar  
    47    20    45 1   
@<TRIPOS>SUBSTRUCTURE
     1 PVV         1 TEMP              0 ****  ****    0 ROOT
