@<TRIPOS>MOLECULE
PVV
   45    47     1     0     0
SMALL
No Charge or Current Charge


@<TRIPOS>ATOM
      1 C4           2.4060     1.1910     0.3870 ca         1 PVV      -0.067300
      2 C5           3.7510     0.9670     0.7330 ca         1 PVV      -0.171000
      3 C6           1.7610     2.5210     0.7790 c6         1 PVV      -0.069100
      4 N1          -2.9800    -0.4110     0.5040 ns         1 PVV      -0.470400
      5 C7           0.4630     2.8010     0.0030 c6         1 PVV       0.154800
      6 C8           0.1820     0.4370    -0.7010 c6         1 PVV       0.251500
      7 N2          -4.8820    -0.0550     1.7740 nc         1 PVV      -0.713000
      8 C9          -0.7030    -0.7940    -0.3180 c3         1 PVV      -0.149400
      9 C10         -2.1990    -0.6220    -0.6060 c          1 PVV       0.620100
     10 C11         -4.3320    -0.2300     0.5850 cd         1 PVV       0.535300
     11 C12         -6.7370     0.0700     0.3760 cd         1 PVV      -0.318000
     12 C13         -6.2390     0.1130     1.6530 cc         1 PVV       0.301900
     13 C14          0.1020     0.6880    -2.2380 c3         1 PVV      -0.078100
     14 C15          3.6940    -3.4540    -1.4180 c3         1 PVV       0.144900
     15 N           -0.3920     1.5970     0.0210 n7         1 PVV      -0.848400
     16 C            4.3940    -0.2380     0.3790 ca         1 PVV       0.120100
     17 O           -2.6610    -0.7390    -1.7320 o          1 PVV      -0.570100
     18 C1           3.6790    -1.2220    -0.3390 ca         1 PVV       0.112100
     19 C16          6.5240     0.4610     1.4310 c3         1 PVV       0.144900
     20 C2           2.3260    -0.9950    -0.6800 ca         1 PVV      -0.163000
     21 C3           1.6680     0.1990    -0.3050 ca         1 PVV      -0.113300
     22 O1           4.3360    -2.3910    -0.6920 os         1 PVV      -0.320100
     23 O2           5.7190    -0.4840     0.7050 os         1 PVV      -0.319100
     24 S           -5.4520    -0.1980    -0.7860 ss         1 PVV       0.060600
     25 H1           4.2820     1.7440     1.2750 ha         1 PVV       0.119000
     26 H2           1.5450     2.5090     1.8550 hc         1 PVV       0.053200
     27 H3           2.4650     3.3490     0.6150 hc         1 PVV       0.053200
     28 H4          -2.4750    -0.3740     1.3750 hn         1 PVV       0.336500
     29 H5          -0.0670     3.6450     0.4700 h1         1 PVV       0.060700
     30 H6           0.6970     3.0950    -1.0310 h1         1 PVV       0.060700
     31 H7          -0.3790    -1.6740    -0.8820 hc         1 PVV       0.069200
     32 H8          -0.5620    -0.9910     0.7510 hc         1 PVV       0.069200
     33 H9          -7.7650     0.1780     0.0580 h4         1 PVV       0.158000
     34 H10         -6.8180     0.2670     2.5550 h4         1 PVV       0.037100
     35 H11         -0.8810     1.0620    -2.5440 hc         1 PVV       0.048700
     36 H12          0.8450     1.4250    -2.5620 hc         1 PVV       0.048700
     37 H13          0.3000    -0.2310    -2.8030 hc         1 PVV       0.048700
     38 H14          4.3980    -4.2790    -1.5840 h1         1 PVV       0.040033
     39 H15          2.8360    -3.8460    -0.8590 h1         1 PVV       0.040033
     40 H16          3.3470    -3.1020    -2.3980 h1         1 PVV       0.040033
     41 H17         -0.4940     1.3310     1.0050 hn         1 PVV       0.405000
     42 H19          6.6110     1.4060     0.8790 h1         1 PVV       0.040700
     43 H20          6.0900     0.6670     2.4180 h1         1 PVV       0.040700
     44 H21          7.5350     0.0620     1.5810 h1         1 PVV       0.040700
     45 H22          1.7820    -1.7410    -1.2490 ha         1 PVV       0.118000
@<TRIPOS>BOND
     1     1     2 ar  
     2     1     3 1   
     3     1    21 ar  
     4     2    16 ar  
     5     2    25 1   
     6     3     5 1   
     7     3    26 1   
     8     3    27 1   
     9     4     9 1   
    10     4    10 1   
    11     4    28 1   
    12     5    15 1   
    13     5    29 1   
    14     5    30 1   
    15     6     8 1   
    16     6    13 1   
    17     6    15 1   
    18     6    21 1   
    19     7    10 2   
    20     7    12 1   
    21     8     9 1   
    22     8    31 1   
    23     8    32 1   
    24     9    17 2   
    25    10    24 1   
    26    11    12 2   
    27    11    24 1   
    28    11    33 1   
    29    12    34 1   
    30    13    35 1   
    31    13    36 1   
    32    13    37 1   
    33    14    22 1   
    34    14    38 1   
    35    14    39 1   
    36    14    40 1   
    37    15    41 1   
    38    16    18 ar  
    39    16    23 1   
    40    18    20 ar  
    41    18    22 1   
    42    19    23 1   
    43    19    42 1   
    44    19    43 1   
    45    19    44 1   
    46    20    21 ar  
    47    20    45 1   
@<TRIPOS>SUBSTRUCTURE
     1 PVV         1 TEMP              0 ****  ****    0 ROOT
