@<TRIPOS>MOLECULE
PVW
   25    26     1     0     0
SMALL
No Charge or Current Charge


@<TRIPOS>ATOM
      1 C1          -3.4250    -1.3750     1.8620 c3         1 PVW       0.144900
      2 O2          -2.6890    -0.7710     0.7860 os         1 PVW      -0.441000
      3 C3          -2.0950    -1.7080    -0.1320 c3         1 PVW       0.138600
      4 C4          -1.3260    -0.9230    -1.2200 c3         1 PVW       0.102000
      5 N5          -0.2280    -0.0710    -0.6900 n          1 PVW      -0.280300
      6 C6           0.9640    -0.6660    -0.2980 cc         1 PVW       0.407900
      7 C7           1.9900     0.0420     0.2150 cd         1 PVW      -0.331600
      8 C8           1.9010     1.4860     0.3830 c          1 PVW       0.621600
      9 O9           2.7840     2.1910     0.8410 o          1 PVW      -0.518000
     10 N10          0.7020     1.9710    -0.0410 ns         1 PVW      -0.414500
     11 C11         -0.3750     1.3120    -0.5700 cs         1 PVW       0.465400
     12 S12         -1.7150     2.2030    -1.0290 s          1 PVW      -0.561400
     13 N13          2.9920    -0.8830     0.4850 na         1 PVW      -0.246500
     14 C14          2.5000    -2.1210     0.1050 cd         1 PVW       0.450400
     15 N15          1.2640    -1.9950    -0.3740 nc         1 PVW      -0.699000
     16 H11C        -3.8470    -0.6020     2.5160 h1         1 PVW       0.030033
     17 H12C        -4.2520    -1.9850     1.4750 h1         1 PVW       0.030033
     18 H13C        -2.7730    -2.0170     2.4680 h1         1 PVW       0.030033
     19 H31C        -1.4040    -2.3790     0.3940 h1         1 PVW       0.037200
     20 H32C        -2.8680    -2.3220    -0.6120 h1         1 PVW       0.037200
     21 HA1         -0.8970    -1.6450    -1.9270 h1         1 PVW       0.092700
     22 HB2         -2.0410    -0.3230    -1.7940 h1         1 PVW       0.092700
     23 H13          3.9110    -0.7120     0.8790 hn         1 PVW       0.380000
     24 H10          0.6000     2.9710     0.0490 hn         1 PVW       0.363500
     25 H14          3.0770    -3.0330     0.2030 h5         1 PVW       0.068100
@<TRIPOS>BOND
     1     1     2 1   
     2     1    16 1   
     3     1    17 1   
     4     1    18 1   
     5     2     3 1   
     6     3     4 1   
     7     3    19 1   
     8     3    20 1   
     9     4     5 1   
    10     4    21 1   
    11     4    22 1   
    12     5     6 1   
    13     5    11 1   
    14     6     7 2   
    15     6    15 1   
    16     7     8 1   
    17     7    13 1   
    18     8     9 2   
    19     8    10 1   
    20    10    11 1   
    21    10    24 1   
    22    11    12 2   
    23    13    14 1   
    24    13    23 1   
    25    14    15 2   
    26    14    25 1   
@<TRIPOS>SUBSTRUCTURE
     1 PVW         1 TEMP              0 ****  ****    0 ROOT
