@<TRIPOS>MOLECULE
PVW
   25    26     1     0     0
SMALL
abcg2


@<TRIPOS>ATOM
      1 C1          -3.2080    -1.3470     1.8480 c3         1 PVW       0.144900
      2 O2          -2.5790    -0.7350     0.7510 os         1 PVW      -0.441000
      3 C3          -2.0730    -1.6630    -0.1670 c3         1 PVW       0.138600
      4 C4          -1.3340    -0.9270    -1.2660 c3         1 PVW       0.102000
      5 N5          -0.2700    -0.0790    -0.7380 n          1 PVW      -0.280300
      6 C6           0.8890    -0.6760    -0.3060 cc         1 PVW       0.407900
      7 C7           1.9170     0.0280     0.2670 cd         1 PVW      -0.331600
      8 C8           1.8600     1.4370     0.4550 c          1 PVW       0.621600
      9 O9           2.6960     2.1680     0.9460 o          1 PVW      -0.518000
     10 N10          0.6470     1.9250    -0.0270 ns         1 PVW      -0.414500
     11 C11         -0.4020     1.2640    -0.6060 cs         1 PVW       0.465400
     12 S12         -1.7220     2.1450    -1.1190 s          1 PVW      -0.561400
     13 N13          2.8710    -0.9100     0.5440 na         1 PVW      -0.246500
     14 C14          2.3830    -2.0870     0.1380 cd         1 PVW       0.450400
     15 N15          1.1770    -1.9870    -0.3880 nc         1 PVW      -0.699000
     16 H11C        -3.5690    -0.5600     2.5090 h1         1 PVW       0.030033
     17 H12C        -4.0630    -1.9620     1.5440 h1         1 PVW       0.030033
     18 H13C        -2.5190    -1.9850     2.4140 h1         1 PVW       0.030033
     19 H31C        -1.4030    -2.3800     0.3260 h1         1 PVW       0.037200
     20 H32C        -2.8740    -2.2490    -0.6380 h1         1 PVW       0.037200
     21 HA1         -0.8890    -1.6500    -1.9470 h1         1 PVW       0.092700
     22 HB2         -2.0090    -0.2930    -1.8340 h1         1 PVW       0.092700
     23 H13          3.7680    -0.7530     0.9780 hn         1 PVW       0.380000
     24 H10          0.5140     2.9260     0.0510 hn         1 PVW       0.363500
     25 H14          2.9390    -3.0060     0.2410 h5         1 PVW       0.068100
@<TRIPOS>BOND
     1     1     2 1   
     2     1    16 1   
     3     1    17 1   
     4     1    18 1   
     5     2     3 1   
     6     3     4 1   
     7     3    19 1   
     8     3    20 1   
     9     4     5 1   
    10     4    21 1   
    11     4    22 1   
    12     5     6 1   
    13     5    11 1   
    14     6     7 2   
    15     6    15 1   
    16     7     8 1   
    17     7    13 1   
    18     8     9 2   
    19     8    10 1   
    20    10    11 1   
    21    10    24 1   
    22    11    12 2   
    23    13    14 1   
    24    13    23 1   
    25    14    15 2   
    26    14    25 1   
@<TRIPOS>SUBSTRUCTURE
     1 PVW         1 TEMP              0 ****  ****    0 ROOT
