@<TRIPOS>MOLECULE
PVY
   87    90     1     0     0
SMALL
No Charge or Current Charge


@<TRIPOS>ATOM
      1 CBO         84.8510    54.4320     5.5810 c3         1 PVY      -0.088100
      2 CBN         84.6080    53.3160     6.6160 c3         1 PVY      -0.074400
      3 CBM         83.1420    53.2460     7.0970 c3         1 PVY      -0.077400
      4 CBL         82.8980    52.1280     8.1340 c3         1 PVY      -0.071400
      5 CBK         81.4290    52.0590     8.6130 c3         1 PVY      -0.108400
      6 CBJ         81.1610    50.9790     9.6920 c3         1 PVY       0.155600
      7 OBI         81.5670    49.6690     9.2240 os         1 PVY      -0.452000
      8 CBH         80.8630    49.0980     8.0910 c3         1 PVY       0.151600
      9 CBG         79.3740    48.8530     8.4410 c3         1 PVY       0.129600
     10 OBF         78.7800    48.0980     7.3710 os         1 PVY      -0.463000
     11 CBE         77.3870    47.7920     7.5600 c3         1 PVY       0.139600
     12 CBD         76.9040    46.9860     6.3340 c3         1 PVY       0.101000
     13 NBB         75.5000    46.5610     6.4420 ns         1 PVY      -0.505900
     14 CBA         74.4130    47.4010     6.3200 c          1 PVY       0.615300
     15 OBC         74.5610    48.5910     6.0790 o          1 PVY      -0.609100
     16 CAQ         73.0740    46.7490     6.4990 cc         1 PVY      -0.170200
     17 CAP         71.9390    47.5360     6.3940 cd         1 PVY      -0.129000
     18 CAR         72.9210    45.3410     6.7930 cc         1 PVY      -0.154000
     19 CAS         71.6850    44.7450     6.9470 cd         1 PVY      -0.159000
     20 CAT         70.4660    45.5130     6.8190 cd         1 PVY      -0.072000
     21 CBP         69.1340    44.7930     6.8790 c          1 PVY       0.685000
     22 OBR         68.1030    45.3890     6.6050 o          1 PVY      -0.666500
     23 OBQ         69.1330    43.6010     7.1530 o          1 PVY      -0.666500
     24 CAG         70.6370    46.9400     6.5750 cd         1 PVY      -0.125000
     25 CAC         69.5410    47.8030     6.5400 cc         1 PVY       0.342000
     26 CAB         68.7970    48.0500     7.7860 ca         1 PVY      -0.206500
     27 CAK         68.9740    47.3050     8.9750 ca         1 PVY       0.052500
     28 CAJ         68.2280    47.6150    10.1230 ca         1 PVY      -0.225000
     29 CAI         67.3140    48.6790    10.1250 ca         1 PVY       0.429500
     30 NAU         66.5660    48.9870    11.2860 nh         1 PVY      -0.795400
     31 CAW         66.1400    50.3750    11.5890 c3         1 PVY       0.206600
     32 CAV         66.1750    47.9350    12.2550 c3         1 PVY       0.206600
     33 CAH         67.1730    49.4450     8.9620 ca         1 PVY      -0.271500
     34 CAA         67.9110    49.1420     7.8140 ca         1 PVY       0.288500
     35 OAF         67.7750    49.9720     6.7290 os         1 PVY      -0.279000
     36 CAE         68.5360    49.8440     5.5940 ca         1 PVY       0.288500
     37 CAO         68.3630    50.7840     4.5740 ca         1 PVY      -0.271500
     38 CAD         69.4350    48.7770     5.4480 ca         1 PVY      -0.206500
     39 CAL         70.1100    48.6280     4.2160 ca         1 PVY       0.052500
     40 CAM         69.9340    49.5760     3.1970 ca         1 PVY      -0.225000
     41 CAN         69.0680    50.6680     3.3690 ca         1 PVY       0.429500
     42 NAX         68.8900    51.6220     2.3390 nh         1 PVY      -0.795400
     43 CAZ         68.5570    53.0340     2.6420 c3         1 PVY       0.206600
     44 CAY         69.0350    51.2550     0.9100 c3         1 PVY       0.206600
     45 H1          85.9020    54.4420     5.2700 hc         1 PVY       0.031033
     46 H2          84.2310    54.2760     4.6900 hc         1 PVY       0.031033
     47 H3          84.6080    55.4140     6.0050 hc         1 PVY       0.031033
     48 H4          84.8920    52.3530     6.1750 hc         1 PVY       0.037200
     49 H5          85.2660    53.4800     7.4780 hc         1 PVY       0.037200
     50 H6          82.8610    54.2120     7.5360 hc         1 PVY       0.035700
     51 H7          82.4860    53.0840     6.2320 hc         1 PVY       0.035700
     52 H8          83.1850    51.1660     7.6930 hc         1 PVY       0.044200
     53 H9          83.5520    52.2900     9.0000 hc         1 PVY       0.044200
     54 H10         81.1520    53.0320     9.0370 hc         1 PVY       0.042700
     55 H11         80.7630    51.9050     7.7560 hc         1 PVY       0.042700
     56 H12         81.7340    51.2390    10.5920 h1         1 PVY       0.043700
     57 H13         80.1000    50.9920     9.9730 h1         1 PVY       0.043700
     58 H14         81.3180    48.1340     7.8280 h1         1 PVY       0.056200
     59 H15         80.9340    49.7420     7.2050 h1         1 PVY       0.056200
     60 H16         78.8570    49.8140     8.5610 h1         1 PVY       0.028200
     61 H17         79.3090    48.2980     9.3860 h1         1 PVY       0.028200
     62 H18         76.7970    48.7130     7.6540 h1         1 PVY       0.030200
     63 H19         77.2430    47.1930     8.4690 h1         1 PVY       0.030200
     64 H20         77.5310    46.0920     6.2230 h1         1 PVY       0.065200
     65 H21         77.0230    47.5960     5.4290 h1         1 PVY       0.065200
     66 H22         75.3080    45.5880     6.6330 hn         1 PVY       0.319500
     67 H23         72.0350    48.6060     6.2190 ha         1 PVY       0.196000
     68 H24         73.7980    44.7080     6.8890 ha         1 PVY       0.176000
     69 H25         71.6360    43.6750     7.1380 ha         1 PVY       0.218000
     70 H27         69.6900    46.4910     9.0370 ha         1 PVY       0.143000
     71 H28         68.3840    47.0280    11.0220 ha         1 PVY       0.129000
     72 H29         65.9980    50.5140    12.6690 h1         1 PVY       0.049283
     73 H30         66.9040    51.0950    11.2620 h1         1 PVY       0.049283
     74 H31         65.1950    50.6090    11.0810 h1         1 PVY       0.049283
     75 H32         65.2580    48.2180    12.7900 h1         1 PVY       0.049283
     76 H33         65.9750    46.9870    11.7380 h1         1 PVY       0.049283
     77 H34         66.9720    47.7730    12.9930 h1         1 PVY       0.049283
     78 H35         66.4880    50.2850     8.9360 ha         1 PVY       0.138000
     79 H36         67.6560    51.5930     4.7210 ha         1 PVY       0.138000
     80 H37         70.7670    47.7790     4.0340 ha         1 PVY       0.143000
     81 H38         70.4830    49.4550     2.2680 ha         1 PVY       0.129000
     82 H39         69.0360    53.3540     3.5770 h1         1 PVY       0.049283
     83 H40         68.9130    53.7000     1.8450 h1         1 PVY       0.049283
     84 H41         67.4700    53.1620     2.7420 h1         1 PVY       0.049283
     85 H42         68.6710    50.2340     0.7330 h1         1 PVY       0.049283
     86 H43         68.4490    51.9290     0.2710 h1         1 PVY       0.049283
     87 H44         70.0880    51.3130     0.6010 h1         1 PVY       0.049283
@<TRIPOS>BOND
     1     1     2 1   
     2     1    45 1   
     3     1    46 1   
     4     1    47 1   
     5     2     3 1   
     6     2    48 1   
     7     2    49 1   
     8     3     4 1   
     9     3    50 1   
    10     3    51 1   
    11     4     5 1   
    12     4    52 1   
    13     4    53 1   
    14     5     6 1   
    15     5    54 1   
    16     5    55 1   
    17     6     7 1   
    18     6    56 1   
    19     6    57 1   
    20     7     8 1   
    21     8     9 1   
    22     8    58 1   
    23     8    59 1   
    24     9    10 1   
    25     9    60 1   
    26     9    61 1   
    27    10    11 1   
    28    11    12 1   
    29    11    62 1   
    30    11    63 1   
    31    12    13 1   
    32    12    64 1   
    33    12    65 1   
    34    13    14 1   
    35    13    66 1   
    36    14    15 2   
    37    14    16 1   
    38    16    17 2   
    39    16    18 1   
    40    17    24 1   
    41    17    67 1   
    42    18    19 2   
    43    18    68 1   
    44    19    20 1   
    45    19    69 1   
    46    20    21 2   
    47    20    24 1   
    48    21    22 1   
    49    21    23 1   
    50    24    25 2   
    51    25    26 1   
    52    25    38 1   
    53    26    27 ar  
    54    26    34 ar  
    55    27    28 ar  
    56    27    70 1   
    57    28    29 ar  
    58    28    71 1   
    59    29    30 1   
    60    29    33 ar  
    61    30    31 1   
    62    30    32 1   
    63    31    72 1   
    64    31    73 1   
    65    31    74 1   
    66    32    75 1   
    67    32    76 1   
    68    32    77 1   
    69    33    34 ar  
    70    33    78 1   
    71    34    35 1   
    72    35    36 1   
    73    36    37 ar  
    74    36    38 ar  
    75    37    41 ar  
    76    37    79 1   
    77    38    39 ar  
    78    39    40 ar  
    79    39    80 1   
    80    40    41 ar  
    81    40    81 1   
    82    41    42 1   
    83    42    43 1   
    84    42    44 1   
    85    43    82 1   
    86    43    83 1   
    87    43    84 1   
    88    44    85 1   
    89    44    86 1   
    90    44    87 1   
@<TRIPOS>SUBSTRUCTURE
     1 PVY         1 TEMP              0 ****  ****    0 ROOT
