@<TRIPOS>MOLECULE
PVY
   87    90     1     0     0
SMALL
bcc


@<TRIPOS>ATOM
      1 CBO         86.3910    53.3710     6.3530 c3         1 PVY      -0.088100
      2 CBN         85.6180    52.5430     7.3700 c3         1 PVY      -0.074400
      3 CBM         84.1320    52.8740     7.3960 c3         1 PVY      -0.077400
      4 CBL         83.3530    52.0570     8.4180 c3         1 PVY      -0.071400
      5 CBK         81.8650    52.3790     8.4190 c3         1 PVY      -0.108400
      6 CBJ         81.0740    51.6390     9.4890 c3         1 PVY       0.132400
      7 OBI         81.2360    50.2340     9.4600 os         1 PVY      -0.405600
      8 CBH         80.5990    49.5720     8.3950 c3         1 PVY       0.128400
      9 CBG         79.1380    49.2740     8.7040 c3         1 PVY       0.106400
     10 OBF         78.6050    48.6080     7.5880 os         1 PVY      -0.416600
     11 CBE         77.2680    48.2110     7.7470 c3         1 PVY       0.116400
     12 CBD         76.8450    47.5130     6.4620 c3         1 PVY       0.101000
     13 NBB         75.5010    46.9900     6.5330 ns         1 PVY      -0.572900
     14 CBA         74.4130    47.7180     6.2290 c          1 PVY       0.682300
     15 OBC         74.4680    48.9030     5.9340 o          1 PVY      -0.609100
     16 CAQ         73.1040    46.9890     6.2440 cc         1 PVY      -0.170200
     17 CAP         71.9420    47.7420     6.3730 cd         1 PVY      -0.079000
     18 CAR         73.0000    45.6120     6.0660 cc         1 PVY      -0.104000
     19 CAS         71.7550    45.0060     6.0250 cd         1 PVY      -0.109000
     20 CAT         70.5920    45.7530     6.1480 cd         1 PVY      -0.072000
     21 CBP         69.2170    45.1150     6.0480 c          1 PVY       0.895600
     22 OBR         68.2710    45.9300     6.0590 o          1 PVY      -0.771800
     23 OBQ         69.1610    43.8810     5.9570 o          1 PVY      -0.771800
     24 CAG         70.6960    47.1310     6.3300 cd         1 PVY      -0.125000
     25 CAC         69.4990    47.9960     6.4650 cc         1 PVY       0.342000
     26 CAB         68.9380    48.2540     7.7260 ca         1 PVY      -0.271800
     27 CAK         69.3120    47.5820     8.9120 ca         1 PVY       0.034500
     28 CAJ         68.6980    47.8280    10.1010 ca         1 PVY      -0.243000
     29 CAI         67.6410    48.7850    10.1990 ca         1 PVY       0.291100
     30 NAU         67.0290    49.0190    11.3710 nh         1 PVY      -0.657000
     31 CAW         65.9700    50.0030    11.4520 c3         1 PVY       0.206600
     32 CAV         67.3980    48.2760    12.5620 c3         1 PVY       0.206600
     33 CAH         67.2640    49.4720     9.0290 ca         1 PVY      -0.354800
     34 CAA         67.8990    49.1990     7.8400 ca         1 PVY       0.463500
     35 OAF         67.4780    49.8840     6.7620 os         1 PVY      -0.367800
     36 CAE         68.0290    49.7000     5.5510 ca         1 PVY       0.463500
     37 CAO         67.5290    50.4670     4.5240 ca         1 PVY      -0.354800
     38 CAD         69.0640    48.7610     5.3710 ca         1 PVY      -0.271800
     39 CAL         69.5750    48.6280     4.0600 ca         1 PVY       0.034500
     40 CAM         69.0990    49.3710     3.0240 ca         1 PVY      -0.243000
     41 CAN         68.0520    50.3230     3.2240 ca         1 PVY       0.291100
     42 NAX         67.5830    51.0540     2.2000 nh         1 PVY      -0.657000
     43 CAZ         66.5260    52.0190     2.4220 c3         1 PVY       0.206600
     44 CAY         68.1220    50.8880     0.8630 c3         1 PVY       0.206600
     45 H1          87.4520    53.1150     6.3490 hc         1 PVY       0.031033
     46 H2          86.0100    53.2100     5.3430 hc         1 PVY       0.031033
     47 H3          86.3090    54.4380     6.5690 hc         1 PVY       0.031033
     48 H4          85.7470    51.4790     7.1520 hc         1 PVY       0.037200
     49 H5          86.0400    52.7010     8.3670 hc         1 PVY       0.037200
     50 H6          84.0020    53.9420     7.6050 hc         1 PVY       0.035700
     51 H7          83.7090    52.7080     6.3990 hc         1 PVY       0.035700
     52 H8          83.5030    50.9920     8.2140 hc         1 PVY       0.044200
     53 H9          83.7660    52.2370     9.4170 hc         1 PVY       0.044200
     54 H10         81.7200    53.4490     8.5990 hc         1 PVY       0.042700
     55 H11         81.4460    52.1880     7.4260 hc         1 PVY       0.042700
     56 H12         81.4230    51.9530    10.4760 h1         1 PVY       0.043700
     57 H13         80.0150    51.9220     9.4240 h1         1 PVY       0.043700
     58 H14         81.1320    48.6300     8.2410 h1         1 PVY       0.056200
     59 H15         80.6670    50.1340     7.4560 h1         1 PVY       0.056200
     60 H16         78.5840    50.2010     8.9080 h1         1 PVY       0.028200
     61 H17         79.0700    48.6520     9.6080 h1         1 PVY       0.028200
     62 H18         76.6160    49.0740     7.9400 h1         1 PVY       0.030200
     63 H19         77.1560    47.5230     8.5970 h1         1 PVY       0.030200
     64 H20         77.5160    46.6770     6.2620 h1         1 PVY       0.065200
     65 H21         76.9210    48.2010     5.6200 h1         1 PVY       0.065200
     66 H22         75.3910    46.0520     6.8790 hn         1 PVY       0.319500
     67 H23         72.0110    48.8150     6.5020 ha         1 PVY       0.146000
     68 H24         73.8800    44.9980     5.9260 ha         1 PVY       0.126000
     69 H25         71.6810    43.9380     5.8730 ha         1 PVY       0.168000
     70 H27         70.1070    46.8490     8.8700 ha         1 PVY       0.161000
     71 H28         69.0250    47.2850    10.9750 ha         1 PVY       0.147000
     72 H29         65.6170    50.0680    12.4760 h1         1 PVY       0.049283
     73 H30         66.3200    50.9940    11.1550 h1         1 PVY       0.049283
     74 H31         65.1200    49.7350    10.8200 h1         1 PVY       0.049283
     75 H32         66.7680    48.5930    13.3870 h1         1 PVY       0.049283
     76 H33         67.2560    47.2030    12.4280 h1         1 PVY       0.049283
     77 H34         68.4370    48.4550    12.8470 h1         1 PVY       0.049283
     78 H35         66.4750    50.2100     9.0330 ha         1 PVY       0.156000
     79 H36         66.7380    51.1700     4.7410 ha         1 PVY       0.156000
     80 H37         70.3640    47.9110     3.8740 ha         1 PVY       0.161000
     81 H38         69.5250    49.2250     2.0430 ha         1 PVY       0.147000
     82 H39         66.8250    52.7860     3.1400 h1         1 PVY       0.049283
     83 H40         66.2870    52.5140     1.4860 h1         1 PVY       0.049283
     84 H41         65.6160    51.5410     2.7910 h1         1 PVY       0.049283
     85 H42         67.9840    49.8700     0.4950 h1         1 PVY       0.049283
     86 H43         67.6020    51.5580     0.1860 h1         1 PVY       0.049283
     87 H44         69.1850    51.1290     0.8210 h1         1 PVY       0.049283
@<TRIPOS>BOND
     1     1     2 1   
     2     1    45 1   
     3     1    46 1   
     4     1    47 1   
     5     2     3 1   
     6     2    48 1   
     7     2    49 1   
     8     3     4 1   
     9     3    50 1   
    10     3    51 1   
    11     4     5 1   
    12     4    52 1   
    13     4    53 1   
    14     5     6 1   
    15     5    54 1   
    16     5    55 1   
    17     6     7 1   
    18     6    56 1   
    19     6    57 1   
    20     7     8 1   
    21     8     9 1   
    22     8    58 1   
    23     8    59 1   
    24     9    10 1   
    25     9    60 1   
    26     9    61 1   
    27    10    11 1   
    28    11    12 1   
    29    11    62 1   
    30    11    63 1   
    31    12    13 1   
    32    12    64 1   
    33    12    65 1   
    34    13    14 1   
    35    13    66 1   
    36    14    15 2   
    37    14    16 1   
    38    16    17 2   
    39    16    18 1   
    40    17    24 1   
    41    17    67 1   
    42    18    19 2   
    43    18    68 1   
    44    19    20 1   
    45    19    69 1   
    46    20    21 2   
    47    20    24 1   
    48    21    22 1   
    49    21    23 1   
    50    24    25 2   
    51    25    26 1   
    52    25    38 1   
    53    26    27 ar  
    54    26    34 ar  
    55    27    28 ar  
    56    27    70 1   
    57    28    29 ar  
    58    28    71 1   
    59    29    30 1   
    60    29    33 ar  
    61    30    31 1   
    62    30    32 1   
    63    31    72 1   
    64    31    73 1   
    65    31    74 1   
    66    32    75 1   
    67    32    76 1   
    68    32    77 1   
    69    33    34 ar  
    70    33    78 1   
    71    34    35 1   
    72    35    36 1   
    73    36    37 ar  
    74    36    38 ar  
    75    37    41 ar  
    76    37    79 1   
    77    38    39 ar  
    78    39    40 ar  
    79    39    80 1   
    80    40    41 ar  
    81    40    81 1   
    82    41    42 1   
    83    42    43 1   
    84    42    44 1   
    85    43    82 1   
    86    43    83 1   
    87    43    84 1   
    88    44    85 1   
    89    44    86 1   
    90    44    87 1   
@<TRIPOS>SUBSTRUCTURE
     1 PVY         1 TEMP              0 ****  ****    0 ROOT
