@<TRIPOS>MOLECULE
PW1
   29    30     1     0     0
SMALL
bcc


@<TRIPOS>ATOM
      1 C6           2.8280    -1.0030     0.5650 ca         1 PW1      -0.049000
      2 C5           1.8250    -1.9490     0.7000 ca         1 PW1      -0.170000
      3 C4           0.5930    -1.6900     0.1390 ca         1 PW1       0.207900
      4 F           -0.3950    -2.5750     0.2460 f          1 PW1      -0.083900
      5 C3           0.3330    -0.5120    -0.5510 ca         1 PW1       0.039100
      6 C8           1.3570     0.4150    -0.6520 ca         1 PW1       0.178900
      7 C7           2.6150     0.1930    -0.1130 ca         1 PW1      -0.254300
      8 C2           3.7090     1.2030    -0.2510 c3         1 PW1       0.205100
      9 N3           3.6160     2.2500     0.8050 nz         1 PW1      -0.838600
     10 C13         -4.3010     0.4240    -0.3060 ca         1 PW1      -0.090500
     11 C12         -3.1730     0.0280    -1.0070 ca         1 PW1      -0.165000
     12 C11         -1.9300     0.0950    -0.3900 ca         1 PW1       0.104100
     13 C10         -1.8060     0.5500     0.9140 ca         1 PW1      -0.165000
     14 O12         -0.8590    -0.2940    -1.1560 os         1 PW1      -0.218200
     15 C9          -2.9490     0.9400     1.6040 ca         1 PW1      -0.090500
     16 F2           1.1070     1.5570    -1.2930 f          1 PW1      -0.116900
     17 C14         -4.1970     0.8800     1.0030 ca         1 PW1      -0.133000
     18 H21          4.6810     0.7320    -0.1330 hx         1 PW1       0.112200
     19 H22          3.6970     1.7180    -1.2090 hx         1 PW1       0.112200
     20 H6           3.8030    -1.2020     0.9900 ha         1 PW1       0.149000
     21 H5           2.0000    -2.8770     1.2260 ha         1 PW1       0.185000
     22 H13         -5.2690     0.3680    -0.7870 ha         1 PW1       0.143500
     23 H14         -5.0810     1.1830     1.5470 ha         1 PW1       0.149000
     24 H9          -2.8510     1.2960     2.6210 ha         1 PW1       0.143500
     25 H10         -0.8430     0.6150     1.4040 ha         1 PW1       0.137500
     26 H31          2.7630     2.8050     0.7330 hn         1 PW1       0.456133
     27 H32          3.6370     1.8470     1.7420 hn         1 PW1       0.456133
     28 H33          4.3980     2.9030     0.7430 hn         1 PW1       0.456133
     29 H12         -3.2530    -0.3310    -2.0250 ha         1 PW1       0.137500
@<TRIPOS>BOND
     1     1     2 ar  
     2     1     7 ar  
     3     1    20 1   
     4     2     3 ar  
     5     2    21 1   
     6     3     4 1   
     7     3     5 ar  
     8     5     6 ar  
     9     5    14 1   
    10     6     7 ar  
    11     6    16 1   
    12     7     8 1   
    13     8     9 1   
    14     8    18 1   
    15     8    19 1   
    16     9    26 1   
    17     9    27 1   
    18     9    28 1   
    19    10    11 ar  
    20    10    17 ar  
    21    10    22 1   
    22    11    12 ar  
    23    11    29 1   
    24    12    13 ar  
    25    12    14 1   
    26    13    15 ar  
    27    13    25 1   
    28    15    17 ar  
    29    15    24 1   
    30    17    23 1   
@<TRIPOS>SUBSTRUCTURE
     1 PW1         1 TEMP              0 ****  ****    0 ROOT
