@<TRIPOS>MOLECULE
PW1
   29    30     1     0     0
SMALL
No Charge or Current Charge


@<TRIPOS>ATOM
      1 C6           2.8380    -0.9080     0.6230 ca         1 PW1      -0.031000
      2 C5           1.7290    -1.7490     0.8160 ca         1 PW1      -0.152000
      3 C4           0.4920    -1.4320     0.2340 ca         1 PW1       0.243000
      4 F           -0.5560    -2.2680     0.4210 f          1 PW1      -0.119000
      5 C3           0.3490    -0.2660    -0.5470 ca         1 PW1       0.039100
      6 C8           1.4670     0.5670    -0.7480 ca         1 PW1       0.214000
      7 C7           2.7110     0.2560    -0.1600 ca         1 PW1      -0.254300
      8 C2           3.9100     1.1520    -0.3780 c3         1 PW1       0.176900
      9 N3           3.9640     2.0720     0.7990 nz         1 PW1      -0.976000
     10 C13         -4.4510     0.1890    -0.3330 ca         1 PW1      -0.072500
     11 C12         -3.2500     0.0120    -1.0420 ca         1 PW1      -0.147000
     12 C11         -2.0160     0.2340    -0.4080 ca         1 PW1       0.104100
     13 C10         -1.9840     0.6530     0.9380 ca         1 PW1      -0.147000
     14 O12         -0.8590     0.0580    -1.1340 os         1 PW1      -0.218200
     15 C9          -3.1860     0.8310     1.6470 ca         1 PW1      -0.072500
     16 F2           1.3440     1.6840    -1.5020 f          1 PW1      -0.152000
     17 C14         -4.4180     0.5970     1.0120 ca         1 PW1      -0.115000
     18 H21          4.8350     0.5680    -0.4370 hx         1 PW1       0.112200
     19 H22          3.8100     1.7350    -1.3020 hx         1 PW1       0.112200
     20 H6           3.7940    -1.1660     1.0760 ha         1 PW1       0.131000
     21 H5           1.8260    -2.6510     1.4150 ha         1 PW1       0.167000
     22 H13         -5.4060     0.0120    -0.8250 ha         1 PW1       0.125500
     23 H14         -5.3470     0.7350     1.5610 ha         1 PW1       0.131000
     24 H9          -3.1620     1.1520     2.6870 ha         1 PW1       0.125500
     25 H10         -1.0380     0.8480     1.4370 ha         1 PW1       0.119500
     26 H31          3.1210     2.6570     0.8850 hn         1 PW1       0.511333
     27 H32          4.0520     1.5700     1.6940 hn         1 PW1       0.511333
     28 H33          4.7600     2.7270     0.7610 hn         1 PW1       0.511333
     29 H12         -3.2750    -0.3030    -2.0820 ha         1 PW1       0.119500
@<TRIPOS>BOND
     1     1     2 ar  
     2     1     7 ar  
     3     1    20 1   
     4     2     3 ar  
     5     2    21 1   
     6     3     4 1   
     7     3     5 ar  
     8     5     6 ar  
     9     5    14 1   
    10     6     7 ar  
    11     6    16 1   
    12     7     8 1   
    13     8     9 1   
    14     8    18 1   
    15     8    19 1   
    16     9    26 1   
    17     9    27 1   
    18     9    28 1   
    19    10    11 ar  
    20    10    17 ar  
    21    10    22 1   
    22    11    12 ar  
    23    11    29 1   
    24    12    13 ar  
    25    12    14 1   
    26    13    15 ar  
    27    13    25 1   
    28    15    17 ar  
    29    15    24 1   
    30    17    23 1   
@<TRIPOS>SUBSTRUCTURE
     1 PW1         1 TEMP              0 ****  ****    0 ROOT
