@<TRIPOS>MOLECULE
PW2
   41    43     1     0     0
SMALL
abcg2


@<TRIPOS>ATOM
      1 C23         21.2360    -4.1030   -74.8560 c          1 PW2       0.715000
      2 O24         20.7690    -3.1060   -75.4300 o          1 PW2      -0.728500
      3 C22         20.2010    -5.1860   -74.4780 c3         1 PW2      -0.058000
      4 C12         26.0700   -16.9570   -67.3490 c3         1 PW2       0.148900
      5 C19         21.0540    -8.4850   -72.8230 ca         1 PW2       0.292500
      6 C17         21.1240   -10.0460   -71.1430 ca         1 PW2       0.301900
      7 C15         23.5860   -12.7980   -68.7700 ca         1 PW2      -0.067000
      8 C14         23.5420   -12.9010   -67.3570 ca         1 PW2      -0.063000
      9 C13         24.1450   -13.9370   -66.7110 ca         1 PW2      -0.135000
     10 C02         22.2940    -8.9080   -73.3160 ca         1 PW2       0.115100
     11 C03         22.9430    -9.9510   -72.6650 ca         1 PW2      -0.181000
     12 C04         22.3670   -10.5390   -71.5480 cp         1 PW2      -0.057000
     13 C05         23.0220   -11.6460   -70.8320 cp         1 PW2      -0.029000
     14 C06         23.7250   -12.6450   -71.5500 ca         1 PW2      -0.083000
     15 C07         24.3320   -13.6850   -70.9040 ca         1 PW2      -0.119000
     16 C08         24.2820   -13.7950   -69.4950 ca         1 PW2       0.002000
     17 C09         24.9030   -14.8670   -68.8110 ca         1 PW2      -0.204000
     18 C10         24.8340   -14.9400   -67.4410 ca         1 PW2       0.140100
     19 C16         22.9650   -11.7370   -69.4600 ca         1 PW2      -0.075000
     20 C20         20.2110    -7.4130   -73.4640 c          1 PW2       0.500600
     21 N18         20.4990    -9.0670   -71.7670 nb         1 PW2      -0.604000
     22 N21         20.8450    -6.3020   -73.8350 ns         1 PW2      -0.446900
     23 O01         22.8060    -8.3080   -74.4010 oh         1 PW2      -0.496100
     24 O11         25.3800   -15.9120   -66.6930 os         1 PW2      -0.343100
     25 O25         22.4240    -4.3300   -74.5540 o          1 PW2      -0.728500
     26 O26         19.0040    -7.5790   -73.5870 o          1 PW2      -0.628100
     27 H221        19.4440    -4.7420   -73.8240 h1         1 PW2       0.036700
     28 H222        19.6760    -5.5100   -75.3820 h1         1 PW2       0.036700
     29 H122        26.4180   -17.6340   -66.5730 h1         1 PW2       0.039033
     30 H121        25.4180   -17.5080   -68.0320 h1         1 PW2       0.039033
     31 H123        26.9330   -16.5870   -67.9080 h1         1 PW2       0.039033
     32 H171        20.6100   -10.4830   -70.2930 h4         1 PW2       0.016100
     33 H141        23.0170   -12.1420   -66.7890 ha         1 PW2       0.118000
     34 H131        24.1050   -14.0100   -65.6310 ha         1 PW2       0.123000
     35 H031        23.9090   -10.2860   -73.0290 ha         1 PW2       0.112000
     36 H061        23.7640   -12.5980   -72.6310 ha         1 PW2       0.115000
     37 H071        24.8550   -14.4440   -71.4740 ha         1 PW2       0.109000
     38 H091        25.4240   -15.6130   -69.3960 ha         1 PW2       0.115000
     39 H161        22.4550   -10.9760   -68.8810 ha         1 PW2       0.121000
     40 H211        21.8430    -6.1920   -73.7200 hn         1 PW2       0.348500
     41 H011        23.6580    -8.6950   -74.6370 ho         1 PW2       0.462000
@<TRIPOS>BOND
     1     1     2 1   
     2     1     3 1   
     3     1    25 1   
     4     3    22 1   
     5     3    27 1   
     6     3    28 1   
     7     4    24 1   
     8     4    29 1   
     9     4    30 1   
    10     4    31 1   
    11     5    10 ar  
    12     5    20 1   
    13     5    21 ar  
    14     6    12 ar  
    15     6    21 ar  
    16     6    32 1   
    17     7     8 ar  
    18     7    16 ar  
    19     7    19 ar  
    20     8     9 ar  
    21     8    33 1   
    22     9    18 ar  
    23     9    34 1   
    24    10    11 ar  
    25    10    23 1   
    26    11    12 ar  
    27    11    35 1   
    28    12    13 1   
    29    13    14 ar  
    30    13    19 ar  
    31    14    15 ar  
    32    14    36 1   
    33    15    16 ar  
    34    15    37 1   
    35    16    17 ar  
    36    17    18 ar  
    37    17    38 1   
    38    18    24 1   
    39    19    39 1   
    40    20    22 1   
    41    20    26 2   
    42    22    40 1   
    43    23    41 1   
@<TRIPOS>SUBSTRUCTURE
     1 PW2         1 TEMP              0 ****  ****    0 ROOT
