@<TRIPOS>MOLECULE
PW2
   41    43     1     0     0
SMALL
No Charge or Current Charge


@<TRIPOS>ATOM
      1 C23         21.0950    -4.4420   -75.7730 c          1 PW2       0.715000
      2 O24         21.1920    -3.2270   -75.6850 o          1 PW2      -0.728500
      3 C22         20.1180    -5.1720   -74.8120 c3         1 PW2      -0.058000
      4 C12         26.2430   -17.1160   -67.4640 c3         1 PW2       0.148900
      5 C19         21.0200    -8.2350   -72.5130 ca         1 PW2       0.292500
      6 C17         21.0760    -9.9970   -70.9600 ca         1 PW2       0.301900
      7 C15         23.4650   -12.9650   -68.6950 ca         1 PW2      -0.067000
      8 C14         23.2300   -13.2460   -67.3370 ca         1 PW2      -0.063000
      9 C13         23.8670   -14.3390   -66.7250 ca         1 PW2      -0.135000
     10 C02         22.3400    -8.5750   -72.9600 ca         1 PW2       0.115100
     11 C03         23.0080    -9.6610   -72.3660 ca         1 PW2      -0.181000
     12 C04         22.3790   -10.4050   -71.3390 cp         1 PW2      -0.057000
     13 C05         23.0570   -11.5690   -70.6820 cp         1 PW2      -0.029000
     14 C06         23.9410   -12.4060   -71.4080 ca         1 PW2      -0.083000
     15 C07         24.5760   -13.5000   -70.7940 ca         1 PW2      -0.119000
     16 C08         24.3420   -13.7830   -69.4380 ca         1 PW2       0.002000
     17 C09         24.9770   -14.8780   -68.8230 ca         1 PW2      -0.204000
     18 C10         24.7390   -15.1580   -67.4590 ca         1 PW2       0.140100
     19 C16         22.8310   -11.8710   -69.3150 ca         1 PW2      -0.075000
     20 C20         20.2010    -7.0600   -73.1030 c          1 PW2       0.500600
     21 N18         20.4160    -8.9590   -71.5180 nb         1 PW2      -0.604000
     22 N21         20.7630    -6.3170   -74.1280 ns         1 PW2      -0.446900
     23 O01         23.0050    -7.8890   -73.9450 oh         1 PW2      -0.496100
     24 O11         25.3340   -16.2170   -66.8030 os         1 PW2      -0.343100
     25 O25         21.7650    -5.1180   -76.5420 o          1 PW2      -0.728500
     26 O26         19.0760    -6.7660   -72.6970 o          1 PW2      -0.628100
     27 H221        19.7570    -4.4590   -74.0600 h1         1 PW2       0.036700
     28 H222        19.2630    -5.5350   -75.3960 h1         1 PW2       0.036700
     29 H122        26.5980   -17.8810   -66.7620 h1         1 PW2       0.039033
     30 H121        25.7490   -17.6250   -68.3010 h1         1 PW2       0.039033
     31 H123        27.1180   -16.5750   -67.8460 h1         1 PW2       0.039033
     32 H171        20.5320   -10.5350   -70.1850 h4         1 PW2       0.016100
     33 H141        22.5570   -12.6200   -66.7540 ha         1 PW2       0.118000
     34 H131        23.6830   -14.5530   -65.6750 ha         1 PW2       0.123000
     35 H031        24.0140    -9.9210   -72.6840 ha         1 PW2       0.112000
     36 H061        24.1290   -12.2170   -72.4610 ha         1 PW2       0.115000
     37 H071        25.2470   -14.1260   -71.3770 ha         1 PW2       0.109000
     38 H091        25.6480   -15.4960   -69.4120 ha         1 PW2       0.115000
     39 H161        22.1680   -11.2420   -68.7270 ha         1 PW2       0.121000
     40 H211        21.6880    -6.6060   -74.4400 hn         1 PW2       0.348500
     41 H011        23.8870    -8.2990   -74.0760 ho         1 PW2       0.462000
@<TRIPOS>BOND
     1     1     2 1   
     2     1     3 1   
     3     1    25 1   
     4     3    22 1   
     5     3    27 1   
     6     3    28 1   
     7     4    24 1   
     8     4    29 1   
     9     4    30 1   
    10     4    31 1   
    11     5    10 ar  
    12     5    20 1   
    13     5    21 ar  
    14     6    12 ar  
    15     6    21 ar  
    16     6    32 1   
    17     7     8 ar  
    18     7    16 ar  
    19     7    19 ar  
    20     8     9 ar  
    21     8    33 1   
    22     9    18 ar  
    23     9    34 1   
    24    10    11 ar  
    25    10    23 1   
    26    11    12 ar  
    27    11    35 1   
    28    12    13 1   
    29    13    14 ar  
    30    13    19 ar  
    31    14    15 ar  
    32    14    36 1   
    33    15    16 ar  
    34    15    37 1   
    35    16    17 ar  
    36    17    18 ar  
    37    17    38 1   
    38    18    24 1   
    39    19    39 1   
    40    20    22 1   
    41    20    26 2   
    42    22    40 1   
    43    23    41 1   
@<TRIPOS>SUBSTRUCTURE
     1 PW2         1 TEMP              0 ****  ****    0 ROOT
