@<TRIPOS>MOLECULE
PW3
   20    20     1     0     0
SMALL
No Charge or Current Charge


@<TRIPOS>ATOM
      1 C01         -2.4690     1.6980    -0.0710 c3         1 PW3      -0.178100
      2 C02         -2.0460     0.2560     0.2120 c          1 PW3       0.614100
      3 N03         -0.6800    -0.0850     0.0820 n          1 PW3      -0.418800
      4 C04         -0.2200    -1.4790     0.3480 c6         1 PW3       0.077000
      5 C05          1.1140    -1.8400    -0.3460 c6         1 PW3       0.092000
      6 N06          2.1380    -0.8070    -0.1720 ns         1 PW3      -0.503900
      7 C07          1.8790     0.5170     0.0720 c          1 PW3       0.552000
      8 C08          0.3960     0.9670     0.1010 c6         1 PW3       0.015000
      9 O09          2.7980     1.3010     0.2530 o          1 PW3      -0.566000
     10 O10         -2.8830    -0.5890     0.4980 o          1 PW3      -0.598100
     11 H01         -1.9680     2.3670     0.6360 hc         1 PW3       0.064367
     12 H01A        -2.0570     2.0140    -1.0360 hc         1 PW3       0.064367
     13 H01B        -3.5560     1.8300    -0.0350 hc         1 PW3       0.064367
     14 H04         -0.0990    -1.6030     1.4330 h1         1 PW3       0.072700
     15 H04A        -0.9850    -2.1990     0.0240 h1         1 PW3       0.072700
     16 H05          1.4920    -2.7960     0.0450 h1         1 PW3       0.052200
     17 H05A         0.9370    -1.9650    -1.4240 h1         1 PW3       0.052200
     18 HN06         3.1150    -1.0770    -0.1950 hn         1 PW3       0.319500
     19 H08          0.2710     1.6210    -0.7730 h1         1 PW3       0.076200
     20 H08A         0.2830     1.5830     1.0030 h1         1 PW3       0.076200
@<TRIPOS>BOND
     1     1     2 1   
     2     1    11 1   
     3     1    12 1   
     4     1    13 1   
     5     2     3 1   
     6     2    10 2   
     7     3     4 1   
     8     3     8 1   
     9     4     5 1   
    10     4    14 1   
    11     4    15 1   
    12     5     6 1   
    13     5    16 1   
    14     5    17 1   
    15     6     7 1   
    16     6    18 1   
    17     7     8 1   
    18     7     9 2   
    19     8    19 1   
    20     8    20 1   
@<TRIPOS>SUBSTRUCTURE
     1 PW3         1 TEMP              0 ****  ****    0 ROOT
