@<TRIPOS>MOLECULE
PW3
   20    20     1     0     0
SMALL
abcg2


@<TRIPOS>ATOM
      1 C01         -2.2600     1.6030    -0.3330 c3         1 PW3      -0.178100
      2 C02         -1.8910     0.1710    -0.0340 c          1 PW3       0.614100
      3 N03         -0.6240    -0.0650     0.3850 n          1 PW3      -0.418800
      4 C04         -0.1550    -1.4030     0.6740 c6         1 PW3       0.077000
      5 C05          0.9070    -1.7800    -0.3360 c6         1 PW3       0.092000
      6 N06          1.9060    -0.7320    -0.4190 ns         1 PW3      -0.503900
      7 C07          1.7440     0.5450    -0.0550 c          1 PW3       0.552000
      8 C08          0.4000     0.9410     0.5370 c6         1 PW3       0.015000
      9 O09          2.6270     1.3870    -0.1470 o          1 PW3      -0.566000
     10 O10         -2.7040    -0.7340    -0.1620 o          1 PW3      -0.598100
     11 H01         -2.0780     2.2620     0.5160 hc         1 PW3       0.064367
     12 H01A        -1.6910     1.9920    -1.1790 hc         1 PW3       0.064367
     13 H01B        -3.3160     1.6510    -0.5850 hc         1 PW3       0.064367
     14 H04          0.2560    -1.4280     1.6870 h1         1 PW3       0.072700
     15 H04A        -0.9810    -2.1060     0.6290 h1         1 PW3       0.072700
     16 H05          1.3950    -2.7060    -0.0320 h1         1 PW3       0.052200
     17 H05A         0.4500    -1.9510    -1.3140 h1         1 PW3       0.052200
     18 HN06         2.7930    -0.9690    -0.8390 hn         1 PW3       0.319500
     19 H08          0.1120     1.8750     0.0640 h1         1 PW3       0.076200
     20 H08A         0.5710     1.1620     1.5980 h1         1 PW3       0.076200
@<TRIPOS>BOND
     1     1     2 1   
     2     1    11 1   
     3     1    12 1   
     4     1    13 1   
     5     2     3 1   
     6     2    10 2   
     7     3     4 1   
     8     3     8 1   
     9     4     5 1   
    10     4    14 1   
    11     4    15 1   
    12     5     6 1   
    13     5    16 1   
    14     5    17 1   
    15     6     7 1   
    16     6    18 1   
    17     7     8 1   
    18     7     9 2   
    19     8    19 1   
    20     8    20 1   
@<TRIPOS>SUBSTRUCTURE
     1 PW3         1 TEMP              0 ****  ****    0 ROOT
