@<TRIPOS>MOLECULE
PW5
   29    29     1     0     0
SMALL
No Charge or Current Charge


@<TRIPOS>ATOM
      1 CAA        -39.4650   -29.6940    -2.8750 c3         1 PW5      -0.052800
      2 CAB        -41.4460   -25.4950    -5.0580 c3         1 PW5      -0.149400
      3 CAG        -38.0970   -27.6680    -3.5640 ca         1 PW5      -0.233000
      4 CAH        -34.9930   -22.7530    -4.3080 c3         1 PW5      -0.208400
      5 CAI        -34.9090   -24.2450    -4.7420 c3         1 PW5      -0.132400
      6 CAL        -33.5980   -22.2160    -3.9510 c          1 PW5       0.721000
      7 CAM        -36.2860   -24.8260    -5.1010 c          1 PW5       0.601100
      8 CAN        -39.3460   -28.3030    -3.4850 ca         1 PW5       0.013700
      9 CAO        -40.2820   -26.3100    -4.5200 ca         1 PW5       0.428300
     10 CAP        -38.0070   -26.3960    -4.1420 ca         1 PW5       0.523900
     11 CAQ        -40.4660   -27.6060    -3.9810 ca         1 PW5      -0.127900
     12 NAJ        -39.0740   -25.7110    -4.5890 nb         1 PW5      -0.687000
     13 NAK        -36.7880   -25.7100    -4.1720 ns         1 PW5      -0.336900
     14 OAC        -33.2070   -22.3500    -2.8020 o          1 PW5      -0.735000
     15 OAD        -36.8460   -24.5520    -6.1560 o          1 PW5      -0.557100
     16 OAE        -32.9200   -21.7350    -4.8460 o          1 PW5      -0.735000
     17 Br1        -42.2210   -28.4050    -3.9110 br         1 PW5      -0.121100
     18 HAA3       -39.8680   -30.4100    -3.6010 hc         1 PW5       0.049033
     19 HAA1       -38.4920   -30.0760    -2.5440 hc         1 PW5       0.049033
     20 HAA2       -40.1280   -29.6860    -2.0020 hc         1 PW5       0.049033
     21 HAB1       -41.1220   -24.5180    -5.4360 hc         1 PW5       0.058033
     22 HAB2       -41.9400   -26.0200    -5.8840 hc         1 PW5       0.058033
     23 HAB3       -42.1910   -25.3150    -4.2750 hc         1 PW5       0.058033
     24 HAG1       -37.2000   -28.1520    -3.1880 ha         1 PW5       0.122000
     25 HAH1       -35.4000   -22.2100    -5.1700 hc         1 PW5       0.032700
     26 HAH2       -35.6450   -22.7330    -3.4260 hc         1 PW5       0.032700
     27 HAI1       -34.4690   -24.8180    -3.9160 hc         1 PW5       0.062200
     28 HAI2       -34.2610   -24.3140    -5.6240 hc         1 PW5       0.062200
     29 HAA        -36.1850   -25.9020    -3.3840 hn         1 PW5       0.156000
@<TRIPOS>BOND
     1     1     8 1   
     2     1    18 1   
     3     1    19 1   
     4     1    20 1   
     5     2     9 1   
     6     2    21 1   
     7     2    22 1   
     8     2    23 1   
     9     3     8 ar  
    10     3    10 ar  
    11     3    24 1   
    12     4     5 1   
    13     4     6 1   
    14     4    25 1   
    15     4    26 1   
    16     5     7 1   
    17     5    27 1   
    18     5    28 1   
    19     6    14 1   
    20     6    16 1   
    21     7    13 1   
    22     7    15 2   
    23     8    11 ar  
    24     9    11 ar  
    25     9    12 ar  
    26    10    12 ar  
    27    10    13 1   
    28    11    17 1   
    29    13    29 1   
@<TRIPOS>SUBSTRUCTURE
     1 PW5         1 TEMP              0 ****  ****    0 ROOT
