@<TRIPOS>MOLECULE
PW5
   29    29     1     0     0
SMALL
bcc


@<TRIPOS>ATOM
      1 CAA        -39.3930   -29.7000    -3.0100 c3         1 PW5      -0.052800
      2 CAB        -41.4750   -25.5020    -4.9760 c3         1 PW5      -0.149400
      3 CAG        -38.1000   -27.6520    -3.6180 ca         1 PW5      -0.316300
      4 CAH        -34.9440   -22.8310    -4.2050 c3         1 PW5      -0.208400
      5 CAI        -34.9720   -24.2590    -4.7450 c3         1 PW5      -0.132400
      6 CAL        -33.5310   -22.2520    -3.9750 c          1 PW5       0.931600
      7 CAM        -36.3900   -24.7160    -4.9980 c          1 PW5       0.668100
      8 CAN        -39.3180   -28.3060    -3.5460 ca         1 PW5       0.013700
      9 CAO        -40.3070   -26.3030    -4.4900 ca         1 PW5       0.493600
     10 CAP        -38.0460   -26.3540    -4.1220 ca         1 PW5       0.589200
     11 CAQ        -40.4340   -27.6020    -4.0020 ca         1 PW5      -0.193200
     12 NAJ        -39.1190   -25.7030    -4.5320 nb         1 PW5      -0.687000
     13 NAK        -36.8110   -25.7140    -4.1570 ns         1 PW5      -0.570400
     14 OAC        -33.5000   -21.0960    -3.5070 o          1 PW5      -0.840300
     15 OAD        -37.0850   -24.2270    -5.8640 o          1 PW5      -0.557100
     16 OAE        -32.5550   -22.9670    -4.2740 o          1 PW5      -0.840300
     17 BR1        -42.1360   -28.4200    -3.9520 br         1 PW5      -0.121100
     18 HAA3       -39.7970   -30.3890    -3.7520 hc         1 PW5       0.049033
     19 HAA1       -38.4060   -30.0560    -2.7210 hc         1 PW5       0.049033
     20 HAA2       -40.0410   -29.7510    -2.1340 hc         1 PW5       0.049033
     21 HAB1       -41.1330   -24.5270    -5.3130 hc         1 PW5       0.058033
     22 HAB2       -41.9840   -25.9940    -5.8060 hc         1 PW5       0.058033
     23 HAB3       -42.2160   -25.3530    -4.1890 hc         1 PW5       0.058033
     24 HAG1       -37.1970   -28.1520    -3.2900 ha         1 PW5       0.140000
     25 HAH1       -35.4780   -22.1680    -4.8910 hc         1 PW5       0.032700
     26 HAH2       -35.4970   -22.7820    -3.2610 hc         1 PW5       0.032700
     27 HAI1       -34.4510   -24.9270    -4.0580 hc         1 PW5       0.062200
     28 HAI2       -34.4360   -24.3020    -5.6950 hc         1 PW5       0.062200
     29 HAA        -36.1010   -26.1260    -3.5700 hn         1 PW5       0.322500
@<TRIPOS>BOND
     1     1     8 1   
     2     1    18 1   
     3     1    19 1   
     4     1    20 1   
     5     2     9 1   
     6     2    21 1   
     7     2    22 1   
     8     2    23 1   
     9     3     8 ar  
    10     3    10 ar  
    11     3    24 1   
    12     4     5 1   
    13     4     6 1   
    14     4    25 1   
    15     4    26 1   
    16     5     7 1   
    17     5    27 1   
    18     5    28 1   
    19     6    14 1   
    20     6    16 1   
    21     7    13 1   
    22     7    15 2   
    23     8    11 ar  
    24     9    11 ar  
    25     9    12 ar  
    26    10    12 ar  
    27    10    13 1   
    28    11    17 1   
    29    13    29 1   
@<TRIPOS>SUBSTRUCTURE
     1 PW5         1 TEMP              0 ****  ****    0 ROOT
