@<TRIPOS>MOLECULE
PW7
   15    15     1     0     0
SMALL
abcg2


@<TRIPOS>ATOM
      1 N1          -2.9110     1.4660    -0.0710 nv         1 PW7      -1.068900
      2 C4          -0.2110    -1.5120    -0.0080 ca         1 PW7      -0.249000
      3 N           -0.7210     0.8140    -0.0070 nb         1 PW7      -0.219000
      4 C1           0.1450    -0.1750     0.0110 ca         1 PW7       0.066300
      5 C2          -2.0160     0.4720    -0.0440 ca         1 PW7       0.395900
      6 C3          -1.5790    -1.7480    -0.0480 ca         1 PW7       0.158900
      7 F            2.1940    -0.1100    -1.1260 f          1 PW7      -0.103000
      8 F1           1.7860     1.5090     0.2320 f          1 PW7      -0.103000
      9 F2           2.2580    -0.4460     0.9990 f          1 PW7      -0.103000
     10 N2          -2.4800    -0.7850    -0.0640 nb         1 PW7      -0.234000
     11 H1          -2.6140     2.4220     0.0020 hn         1 PW7       0.510500
     12 H2          -3.8950     1.2640    -0.0370 hn         1 PW7       0.510500
     13 H3           0.5030    -2.3200     0.0070 ha         1 PW7       0.150000
     14 H4          -1.9560    -2.7640    -0.0640 h4         1 PW7       0.028100
     15 C            1.6050     0.2100     0.0330 c3         1 PW7       0.261700
@<TRIPOS>BOND
     1     1     5 1   
     2     1    11 1   
     3     1    12 1   
     4     2     4 ar  
     5     2     6 ar  
     6     2    13 1   
     7     3     4 ar  
     8     3     5 ar  
     9     4    15 1   
    10     5    10 ar  
    11     6    10 ar  
    12     6    14 1   
    13     7    15 1   
    14     8    15 1   
    15     9    15 1   
@<TRIPOS>SUBSTRUCTURE
     1 PW7         1 TEMP              0 ****  ****    0 ROOT
