@<TRIPOS>MOLECULE
PW7
   15    15     1     0     0
SMALL
No Charge or Current Charge


@<TRIPOS>ATOM
      1 N1          -2.9430     1.4680    -0.1670 nv         1 PW7      -1.068900
      2 C4          -0.2420    -1.5120     0.0120 ca         1 PW7      -0.249000
      3 N           -0.7410     0.8320    -0.0680 nb         1 PW7      -0.219000
      4 C1           0.1740    -0.1630    -0.0040 ca         1 PW7       0.066300
      5 C2          -2.0330     0.4640    -0.1070 ca         1 PW7       0.395900
      6 C3          -1.6220    -1.7790    -0.0330 ca         1 PW7       0.158900
      7 F            2.2610    -0.0280    -1.1550 f          1 PW7      -0.103000
      8 F1           1.8660     1.5260     0.3130 f          1 PW7      -0.103000
      9 F2           2.3360    -0.4900     0.9670 f          1 PW7      -0.103000
     10 N2          -2.5280    -0.7830    -0.0920 nb         1 PW7      -0.234000
     11 H1          -2.6340     2.4140     0.0500 hn         1 PW7       0.510500
     12 H2          -3.9190     1.2550     0.0330 hn         1 PW7       0.510500
     13 H3           0.4780    -2.3260     0.0560 ha         1 PW7       0.150000
     14 H4          -2.0060    -2.7980    -0.0220 h4         1 PW7       0.028100
     15 C            1.6600     0.2170     0.0320 c3         1 PW7       0.261700
@<TRIPOS>BOND
     1     1     5 1   
     2     1    11 1   
     3     1    12 1   
     4     2     4 ar  
     5     2     6 ar  
     6     2    13 1   
     7     3     4 ar  
     8     3     5 ar  
     9     4    15 1   
    10     5    10 ar  
    11     6    10 ar  
    12     6    14 1   
    13     7    15 1   
    14     8    15 1   
    15     9    15 1   
@<TRIPOS>SUBSTRUCTURE
     1 PW7         1 TEMP              0 ****  ****    0 ROOT
