@<TRIPOS>MOLECULE
PW8
   29    30     1     0     0
SMALL
bcc


@<TRIPOS>ATOM
      1 C02         33.3610    22.4290    -1.1840 c          1 PW8       0.931600
      2 C03         34.7720    22.8390    -1.6580 c3         1 PW8      -0.210400
      3 C04         34.8430    24.2090    -2.3310 c3         1 PW8      -0.134400
      4 C05         36.2620    24.5200    -2.7420 c          1 PW8       0.670100
      5 C10         40.3040    28.6780    -0.6850 ca         1 PW8      -0.025900
      6 C13         42.5610    28.2520    -1.4260 ca         1 PW8      -0.165000
      7 C14         42.1700    27.0860    -2.0190 ca         1 PW8      -0.067000
      8 C07         38.2240    25.8200    -1.9160 ca         1 PW8       0.575200
      9 C08         38.5230    27.0120    -1.2930 ca         1 PW8      -0.318300
     10 C09         39.8490    27.4770    -1.2910 ca         1 PW8       0.050000
     11 C12         41.6170    29.0540    -0.7520 ca         1 PW8      -0.079000
     12 C15         40.8190    26.6870    -1.9610 ca         1 PW8      -0.210300
     13 C16         40.3770    25.4870    -2.5550 ca         1 PW8       0.457200
     14 N06         36.9130    25.3590    -1.8720 ns         1 PW8      -0.565400
     15 N17         39.1460    25.0580    -2.5310 nb         1 PW8      -0.653000
     16 O01         32.4540    23.2790    -1.2730 o          1 PW8      -0.839800
     17 O18         36.7750    24.0410    -3.7330 o          1 PW8      -0.562100
     18 O19         33.2640    21.2690    -0.7360 o          1 PW8      -0.839800
     19 H031        35.1520    22.0720    -2.3370 hc         1 PW8       0.031700
     20 H032        35.4400    22.8200    -0.7900 hc         1 PW8       0.031700
     21 H041        34.4430    24.9710    -1.6610 hc         1 PW8       0.065200
     22 H042        34.2230    24.2140    -3.2290 hc         1 PW8       0.065200
     23 H131        43.5930    28.5740    -1.4620 ha         1 PW8       0.130000
     24 H141        42.8840    26.4590    -2.5380 ha         1 PW8       0.132000
     25 H081        37.7320    27.5780    -0.8190 ha         1 PW8       0.153000
     26 H121        41.9490    29.9730    -0.2860 ha         1 PW8       0.138000
     27 H161        41.1030    24.8580    -3.0630 h4         1 PW8       0.018100
     28 H061        36.3340    25.7940    -1.1690 hn         1 PW8       0.326500
     29 BR1         39.0870    29.7880     0.2370 br         1 PW8      -0.104100
@<TRIPOS>BOND
     1     1     2 1   
     2     1    16 1   
     3     1    18 1   
     4     2     3 1   
     5     2    19 1   
     6     2    20 1   
     7     3     4 1   
     8     3    21 1   
     9     3    22 1   
    10     4    14 1   
    11     4    17 2   
    12     5    10 ar  
    13     5    11 ar  
    14     5    29 1   
    15     6     7 ar  
    16     6    11 ar  
    17     6    23 1   
    18     7    12 ar  
    19     7    24 1   
    20     8     9 ar  
    21     8    14 1   
    22     8    15 ar  
    23     9    10 ar  
    24     9    25 1   
    25    10    12 ar  
    26    11    26 1   
    27    12    13 ar  
    28    13    15 ar  
    29    13    27 1   
    30    14    28 1   
@<TRIPOS>SUBSTRUCTURE
     1 PW8         1 TEMP              0 ****  ****    0 ROOT
