@<TRIPOS>MOLECULE
PW8
   29    30     1     0     0
SMALL
No Charge or Current Charge


@<TRIPOS>ATOM
      1 C02         33.2760    22.3890    -1.2490 c          1 PW8       0.721000
      2 C03         34.7240    22.6800    -1.6770 c3         1 PW8      -0.210400
      3 C04         34.8490    24.1290    -2.2310 c3         1 PW8      -0.134400
      4 C05         36.2840    24.4650    -2.6660 c          1 PW8       0.603100
      5 C10         40.2640    28.8360    -0.9220 ca         1 PW8      -0.025900
      6 C13         42.5910    28.3260    -1.4400 ca         1 PW8      -0.147000
      7 C14         42.2180    27.0520    -1.8980 ca         1 PW8      -0.049000
      8 C07         38.2520    25.8290    -1.8740 ca         1 PW8       0.509900
      9 C08         38.5460    27.1070    -1.3820 ca         1 PW8      -0.235000
     10 C09         39.8810    27.5540    -1.3840 ca         1 PW8       0.050000
     11 C12         41.6180    29.2150    -0.9540 ca         1 PW8      -0.061000
     12 C15         40.8640    26.6670    -1.8690 ca         1 PW8      -0.145000
     13 C16         40.4710    25.3900    -2.3160 ca         1 PW8       0.391900
     14 N06         36.9430    25.3320    -1.8220 ns         1 PW8      -0.331900
     15 N17         39.1890    24.9670    -2.3110 nb         1 PW8      -0.653000
     16 O01         32.9470    22.6720    -0.1080 o          1 PW8      -0.734500
     17 O18         36.7620    24.0280    -3.7060 o          1 PW8      -0.562100
     18 O19         32.5060    21.9480    -2.0880 o          1 PW8      -0.734500
     19 H031        35.0180    22.0150    -2.4990 hc         1 PW8       0.031700
     20 H032        35.3940    22.6310    -0.8100 hc         1 PW8       0.031700
     21 H041        34.5260    24.8250    -1.4470 hc         1 PW8       0.065200
     22 H042        34.1900    24.2250    -3.1030 hc         1 PW8       0.065200
     23 H131        43.6370    28.6250    -1.4620 ha         1 PW8       0.112000
     24 H141        42.9780    26.3680    -2.2710 ha         1 PW8       0.114000
     25 H081        37.7360    27.7280    -1.0140 ha         1 PW8       0.135000
     26 H121        41.9140    30.2000    -0.6010 ha         1 PW8       0.120000
     27 H161        41.2090    24.6790    -2.6870 h4         1 PW8       0.018100
     28 H061        36.4020    25.6720    -1.0400 hn         1 PW8       0.160000
     29 Br1         38.9860    30.1010    -0.2450 br         1 PW8      -0.104100
@<TRIPOS>BOND
     1     1     2 1   
     2     1    16 1   
     3     1    18 1   
     4     2     3 1   
     5     2    19 1   
     6     2    20 1   
     7     3     4 1   
     8     3    21 1   
     9     3    22 1   
    10     4    14 1   
    11     4    17 2   
    12     5    10 ar  
    13     5    11 ar  
    14     5    29 1   
    15     6     7 ar  
    16     6    11 ar  
    17     6    23 1   
    18     7    12 ar  
    19     7    24 1   
    20     8     9 ar  
    21     8    14 1   
    22     8    15 ar  
    23     9    10 ar  
    24     9    25 1   
    25    10    12 ar  
    26    11    26 1   
    27    12    13 ar  
    28    13    15 ar  
    29    13    27 1   
    30    14    28 1   
@<TRIPOS>SUBSTRUCTURE
     1 PW8         1 TEMP              0 ****  ****    0 ROOT
