@<TRIPOS>MOLECULE
PWA
   17    18     1     0     0
SMALL
No Charge or Current Charge


@<TRIPOS>ATOM
      1 N1           2.6170     0.3780    -0.0380 ns         1 PWA      -0.432400
      2 C4          -0.0470     0.8270    -0.0090 ca         1 PWA       0.207400
      3 C5           2.1030     1.6480    -0.0310 cc         1 PWA       0.509800
      4 C6           0.4130    -0.5060    -0.0160 ca         1 PWA      -0.224600
      5 C7           1.8750    -0.7510    -0.0320 c          1 PWA       0.579600
      6 N            0.8020     1.9470    -0.0170 nd         1 PWA      -0.623100
      7 C           -2.3400     0.0010     0.0140 ca         1 PWA       0.212000
      8 O            2.3840    -1.8610    -0.0390 o          1 PWA      -0.529000
      9 C1          -1.8820    -1.3220     0.0070 ca         1 PWA      -0.177000
     10 C2          -0.5030    -1.5800    -0.0080 ca         1 PWA      -0.013000
     11 C3          -1.4300     1.0670     0.0060 ca         1 PWA      -0.154000
     12 F           -3.6670     0.2510     0.0280 f          1 PWA      -0.168000
     13 H1           3.6190     0.2560    -0.0490 hn         1 PWA       0.332500
     14 H2           2.8750     2.4080    -0.0380 h5         1 PWA       0.048800
     15 H3          -2.5940    -2.1440     0.0140 ha         1 PWA       0.139000
     16 H4          -0.1480    -2.6110    -0.0130 ha         1 PWA       0.140000
     17 H5          -1.8030     2.0860     0.0110 ha         1 PWA       0.152000
@<TRIPOS>BOND
     1     1     3 1   
     2     1     5 1   
     3     1    13 1   
     4     2     4 ar  
     5     2     6 1   
     6     2    11 ar  
     7     3     6 2   
     8     3    14 1   
     9     4     5 1   
    10     4    10 ar  
    11     5     8 2   
    12     7     9 ar  
    13     7    11 ar  
    14     7    12 1   
    15     9    10 ar  
    16     9    15 1   
    17    10    16 1   
    18    11    17 1   
@<TRIPOS>SUBSTRUCTURE
     1 PWA         1 TEMP              0 ****  ****    0 ROOT
