@<TRIPOS>MOLECULE
PWA
   17    18     1     0     0
SMALL
abcg2


@<TRIPOS>ATOM
      1 N1           2.5970     0.3780    -0.0370 ns         1 PWA      -0.432400
      2 C4          -0.0440     0.8180    -0.0110 ca         1 PWA       0.207400
      3 C5           2.0690     1.6260    -0.0330 cc         1 PWA       0.509800
      4 C6           0.4110    -0.5130    -0.0170 ca         1 PWA      -0.224600
      5 C7           1.8440    -0.7780    -0.0300 c          1 PWA       0.579600
      6 N            0.8170     1.8920    -0.0200 nd         1 PWA      -0.623100
      7 C           -2.2890     0.0100     0.0130 ca         1 PWA       0.212000
      8 O            2.3650    -1.8760    -0.0340 o          1 PWA      -0.529000
      9 C1          -1.8590    -1.3150     0.0060 ca         1 PWA      -0.177000
     10 C2          -0.5070    -1.5660    -0.0090 ca         1 PWA      -0.013000
     11 C3          -1.4190     1.0710     0.0050 ca         1 PWA      -0.154000
     12 F           -3.6000     0.2500     0.0290 f          1 PWA      -0.168000
     13 H1           3.6020     0.2820    -0.0480 hn         1 PWA       0.332500
     14 H2           2.7930     2.4300    -0.0400 h5         1 PWA       0.048800
     15 H3          -2.5800    -2.1210     0.0120 ha         1 PWA       0.139000
     16 H4          -0.1510    -2.5870    -0.0150 ha         1 PWA       0.140000
     17 H5          -1.7780     2.0920     0.0170 ha         1 PWA       0.152000
@<TRIPOS>BOND
     1     1     3 1   
     2     1     5 1   
     3     1    13 1   
     4     2     4 ar  
     5     2     6 1   
     6     2    11 ar  
     7     3     6 2   
     8     3    14 1   
     9     4     5 1   
    10     4    10 ar  
    11     5     8 2   
    12     7     9 ar  
    13     7    11 ar  
    14     7    12 1   
    15     9    10 ar  
    16     9    15 1   
    17    10    16 1   
    18    11    17 1   
@<TRIPOS>SUBSTRUCTURE
     1 PWA         1 TEMP              0 ****  ****    0 ROOT
