@<TRIPOS>MOLECULE
PWB
   67    73     1     0     0
SMALL
No Charge or Current Charge


@<TRIPOS>ATOM
      1 N          -16.2790     0.4940    30.6170 nb         1 PWB      -0.305000
      2 C          -15.2020     0.8260    31.3760 ca         1 PWB       0.183900
      3 O          -17.8270     4.2370    30.5950 o          1 PWB      -0.520000
      4 C1         -16.4360     1.4010    33.2230 ca         1 PWB       0.138500
      5 C10        -14.5840     0.6280    27.4740 ca         1 PWB       0.142900
      6 C11        -13.4310     2.2570    28.6000 ca         1 PWB       0.102500
      7 C12        -12.5090     1.3220    28.9920 ca         1 PWB       0.005400
      8 C13        -12.6830    -0.0070    28.5780 ca         1 PWB       0.194900
      9 C14        -11.8220     3.1630    29.8570 cc         1 PWB       0.549700
     10 C15        -14.8870     5.2190    30.8020 c5         1 PWB       0.150300
     11 C16        -15.0470     4.9780    29.2730 c5         1 PWB       0.119300
     12 C17        -13.5550     4.7700    28.8840 c5         1 PWB       0.293300
     13 C18        -13.6170     6.1190    30.8340 c5         1 PWB       0.154300
     14 C19        -12.7710     6.0490    32.1320 c3         1 PWB       0.219600
     15 C2         -17.5810     1.0630    32.5450 ca         1 PWB       0.015400
     16 C3         -17.4690     0.6180    31.2190 ca         1 PWB       0.213900
     17 C4         -18.2570     1.6610    34.4870 cc         1 PWB       0.545700
     18 C5         -14.6500     3.9270    34.5880 c5         1 PWB       0.194300
     19 C6         -14.5670     2.6110    35.4320 c5         1 PWB       0.136300
     20 C7         -16.0870     2.3180    35.6080 c5         1 PWB       0.272300
     21 C8         -15.8860     4.6430    35.2270 c5         1 PWB       0.132300
     22 C9         -16.8260     5.3830    34.2360 c3         1 PWB       0.208600
     23 F1         -15.5780     6.0980    28.6170 f          1 PWB      -0.221000
     24 F2         -13.9660     2.8280    36.6820 f          1 PWB      -0.214000
     25 N1         -15.2170     1.2780    32.6530 nb         1 PWB      -0.052000
     26 N10        -11.7300    -1.0490    28.9680 nz         1 PWB      -1.009900
     27 N2         -16.8650     1.8200    34.4610 na         1 PWB      -0.290300
     28 N3         -18.7330     1.2080    33.3080 nd         1 PWB      -0.585100
     29 N4         -13.7260    -0.3700    27.8140 nb         1 PWB      -0.211000
     30 N5         -14.4900     1.9350    27.8280 nb         1 PWB      -0.094000
     31 N6         -13.0030     3.4360    29.1460 na         1 PWB      -0.303300
     32 N7         -11.4960     1.8530    29.7810 nd         1 PWB      -0.593100
     33 O1         -16.6090     3.6170    35.9680 os         1 PWB      -0.435000
     34 O10        -13.4790     4.7580    34.7790 os         1 PWB      -0.547400
     35 O2         -17.0660     4.5490    33.0850 os         1 PWB      -0.606400
     36 O5         -12.8310     5.7500    29.6670 os         1 PWB      -0.412000
     37 O7         -16.0050     5.9910    31.3090 os         1 PWB      -0.549400
     38 O8         -12.5950     4.6720    32.5090 os         1 PWB      -0.648400
     39 P          -17.3690     5.1920    31.6380 p5         1 PWB       1.123200
     40 P1         -12.1250     4.3300    34.0090 p5         1 PWB       1.376800
     41 S1         -18.7080     6.7370    32.0760 sh         1 PWB      -0.449200
     42 N11        -18.6460     0.2640    30.4340 nz         1 PWB      -0.980900
     43 H          -14.2230     0.7120    30.9180 h5         1 PWB       0.095100
     44 H15        -14.7660     4.2800    31.3580 h1         1 PWB       0.068700
     45 H16        -15.6720     4.1080    29.0380 h1         1 PWB       0.099700
     46 H17        -13.4050     4.9510    27.8110 h2         1 PWB       0.134700
     47 H18        -13.9140     7.1680    30.6980 h1         1 PWB       0.101700
     48 H192       -11.8040     6.5410    31.9610 h1         1 PWB       0.069700
     49 H191       -13.2990     6.6070    32.9170 h1         1 PWB       0.069700
     50 H4         -18.8490     1.9080    35.3610 h5         1 PWB       0.118800
     51 H5         -14.7910     3.7250    33.5210 h1         1 PWB       0.023700
     52 H6         -14.0320     1.7970    34.9290 h1         1 PWB       0.142700
     53 H7         -16.2490     1.5990    36.4230 h2         1 PWB       0.130700
     54 H8         -15.5420     5.3850    35.9590 h1         1 PWB       0.129700
     55 H91        -16.3410     6.3260    33.9470 h1         1 PWB       0.082200
     56 H92        -17.7650     5.6290    34.7490 h1         1 PWB       0.082200
     57 HN5        -11.2250    -1.4760    28.1790 hn         1 PWB       0.533333
     58 HN4        -10.9830    -0.6360    29.5460 hn         1 PWB       0.533333
     59 HS1        -19.5040     6.1730    31.1380 hs         1 PWB       0.328800
     60 HN3        -18.6600    -0.7140    30.1200 hn         1 PWB       0.526000
     61 HN1        -19.4890     0.3510    31.0180 hn         1 PWB       0.526000
     62 HN2        -18.8200     0.8880    29.6360 hn         1 PWB       0.526000
     63 HN6        -12.1270    -1.7900    29.5610 hn         1 PWB       0.533333
     64 O22        -11.8260     2.8780    34.1540 o          1 PWB      -0.778500
     65 H10        -15.4350     0.3510    26.8540 h5         1 PWB       0.091100
     66 O4         -10.9720     5.1850    34.4060 o          1 PWB      -0.778500
     67 H14        -11.2580     3.9320    30.3750 h5         1 PWB       0.162800
@<TRIPOS>BOND
     1     1     2 ar  
     2     1    16 ar  
     3     2    25 ar  
     4     2    43 1   
     5     3    39 2   
     6     4    15 ar  
     7     4    25 ar  
     8     4    27 1   
     9     5    29 ar  
    10     5    30 ar  
    11     5    65 1   
    12     6     7 ar  
    13     6    30 ar  
    14     6    31 1   
    15     7     8 ar  
    16     7    32 1   
    17     8    26 1   
    18     8    29 ar  
    19     9    31 1   
    20     9    32 2   
    21     9    67 1   
    22    10    11 1   
    23    10    13 1   
    24    10    37 1   
    25    10    44 1   
    26    11    12 1   
    27    11    23 1   
    28    11    45 1   
    29    12    31 1   
    30    12    36 1   
    31    12    46 1   
    32    13    14 1   
    33    13    36 1   
    34    13    47 1   
    35    14    38 1   
    36    14    48 1   
    37    14    49 1   
    38    15    16 ar  
    39    15    28 1   
    40    16    42 1   
    41    17    27 1   
    42    17    28 2   
    43    17    50 1   
    44    18    19 1   
    45    18    21 1   
    46    18    34 1   
    47    18    51 1   
    48    19    20 1   
    49    19    24 1   
    50    19    52 1   
    51    20    27 1   
    52    20    33 1   
    53    20    53 1   
    54    21    22 1   
    55    21    33 1   
    56    21    54 1   
    57    22    35 1   
    58    22    55 1   
    59    22    56 1   
    60    26    57 1   
    61    26    58 1   
    62    26    63 1   
    63    34    40 1   
    64    35    39 1   
    65    37    39 1   
    66    38    40 1   
    67    39    41 1   
    68    40    64 1   
    69    40    66 1   
    70    41    59 1   
    71    42    60 1   
    72    42    61 1   
    73    42    62 1   
@<TRIPOS>SUBSTRUCTURE
     1 PWB         1 TEMP              0 ****  ****    0 ROOT
