@<TRIPOS>MOLECULE
PWB
   67    73     1     0     0
SMALL
abcg2


@<TRIPOS>ATOM
      1 N          -14.9930    -0.6120    31.3850 nb         1 PWB      -0.305000
      2 C          -14.2090    -0.2690    32.4220 ca         1 PWB       0.183900
      3 O          -17.8080     4.3760    30.7970 o          1 PWB      -0.520000
      4 C1         -15.8170     0.9120    33.4170 ca         1 PWB       0.138500
      5 C10        -14.7520     1.2850    26.7270 ca         1 PWB       0.142900
      6 C11        -13.7620     2.4430    28.3450 ca         1 PWB       0.102500
      7 C12        -13.3300     1.2700    28.9990 ca         1 PWB       0.005400
      8 C13        -13.7320     0.0990    28.3870 ca         1 PWB       0.194900
      9 C14        -12.6660     2.8950    30.2020 cc         1 PWB       0.549700
     10 C15        -14.9880     5.4730    30.7750 c5         1 PWB       0.150300
     11 C16        -15.1090     5.1610    29.2910 c5         1 PWB       0.119300
     12 C17        -13.6450     4.8950    28.9360 c5         1 PWB       0.293300
     13 C18        -13.7030     6.2930    30.8270 c5         1 PWB       0.154300
     14 C19        -12.9860     6.3090    32.1530 c3         1 PWB       0.219600
     15 C2         -16.7440     0.6010    32.3920 ca         1 PWB       0.015400
     16 C3         -16.2410    -0.1840    31.3800 ca         1 PWB       0.213900
     17 C4         -17.7780     1.8470    33.7600 cc         1 PWB       0.545700
     18 C5         -14.6530     4.0540    34.7410 c5         1 PWB       0.194300
     19 C6         -14.5990     2.7410    35.5120 c5         1 PWB       0.136300
     20 C7         -16.0750     2.3690    35.5460 c5         1 PWB       0.272300
     21 C8         -15.9340     4.6940    35.2830 c5         1 PWB       0.132300
     22 C9         -16.6810     5.5830    34.3240 c3         1 PWB       0.208600
     23 F1         -15.5240     6.3040    28.6070 f          1 PWB      -0.221000
     24 F2         -14.2120     2.9850    36.8340 f          1 PWB      -0.214000
     25 N1         -14.5650     0.4820    33.4580 nb         1 PWB      -0.052000
     26 N10        -13.4850    -1.1980    29.0080 nz         1 PWB      -1.009900
     27 N2         -16.5050     1.7280    34.2790 na         1 PWB      -0.290300
     28 N3         -17.9610     1.1920    32.6410 nd         1 PWB      -0.585100
     29 N4         -14.4270     0.1000    27.2680 nb         1 PWB      -0.211000
     30 N5         -14.4640     2.4880    27.2230 nb         1 PWB      -0.094000
     31 N6         -13.3290     3.4730    29.1400 na         1 PWB      -0.303300
     32 N7         -12.6420     1.5830    30.1500 nd         1 PWB      -0.593100
     33 O1         -16.7650     3.5840    35.7020 os         1 PWB      -0.435000
     34 O10        -13.5510     4.9090    34.9350 os         1 PWB      -0.547400
     35 O2         -17.0990     4.8040    33.1780 os         1 PWB      -0.606400
     36 O5         -12.8730     5.6850    29.8060 os         1 PWB      -0.412000
     37 O7         -16.0810     6.2160    31.3140 os         1 PWB      -0.549400
     38 O8         -12.7020     4.9710    32.5520 os         1 PWB      -0.648400
     39 P          -17.4000     5.4180    31.7520 p5         1 PWB       1.123200
     40 P1         -12.1850     4.6430    34.0610 p5         1 PWB       1.376800
     41 S1         -18.7600     6.9460    32.1320 sh         1 PWB      -0.449200
     42 N11        -17.0580    -0.5490    30.2220 nz         1 PWB      -0.980900
     43 H          -13.1930    -0.6380    32.3980 h5         1 PWB       0.095100
     44 H15        -14.8570     4.5380    31.3210 h1         1 PWB       0.068700
     45 H16        -15.7870     4.3510    29.0440 h1         1 PWB       0.099700
     46 H17        -13.4320     5.1430    27.8970 h2         1 PWB       0.134700
     47 H18        -13.9210     7.3250    30.5410 h1         1 PWB       0.101700
     48 H192       -12.0590     6.8780    32.0650 h1         1 PWB       0.069700
     49 H191       -13.6310     6.8060    32.8820 h1         1 PWB       0.069700
     50 H4         -18.5210     2.4450    34.2590 h5         1 PWB       0.118800
     51 H5         -14.7750     3.8110    33.6830 h1         1 PWB       0.023700
     52 H6         -13.9350     1.9970    35.0930 h1         1 PWB       0.142700
     53 H7         -16.3260     1.7080    36.3740 h2         1 PWB       0.130700
     54 H8         -15.6900     5.2930    36.1630 h1         1 PWB       0.129700
     55 H91        -16.0270     6.3980    34.0100 h1         1 PWB       0.082200
     56 H92        -17.5720     5.9910    34.8010 h1         1 PWB       0.082200
     57 HN5        -13.8080    -1.9490    28.3930 hn         1 PWB       0.533333
     58 HN4        -12.4940    -1.3470    29.2190 hn         1 PWB       0.533333
     59 HS1        -18.8930     7.2460    30.8260 hs         1 PWB       0.328800
     60 HN3        -16.7050    -1.4090    29.7880 hn         1 PWB       0.526000
     61 HN1        -18.0380    -0.7000    30.4830 hn         1 PWB       0.526000
     62 HN2        -17.0390     0.1890    29.5070 hn         1 PWB       0.526000
     63 HN6        -14.0230    -1.2380    29.9120 hn         1 PWB       0.533333
     64 O22        -11.8650     3.1890    34.0530 o          1 PWB      -0.778500
     65 H10        -15.3150     1.2530    25.8030 h5         1 PWB       0.091100
     66 O4         -11.2200     5.6740    34.5280 o          1 PWB      -0.778500
     67 H14        -12.2410     3.5010    30.9850 h5         1 PWB       0.162800
@<TRIPOS>BOND
     1     1     2 ar  
     2     1    16 ar  
     3     2    25 ar  
     4     2    43 1   
     5     3    39 2   
     6     4    15 ar  
     7     4    25 ar  
     8     4    27 1   
     9     5    29 ar  
    10     5    30 ar  
    11     5    65 1   
    12     6     7 ar  
    13     6    30 ar  
    14     6    31 1   
    15     7     8 ar  
    16     7    32 1   
    17     8    26 1   
    18     8    29 ar  
    19     9    31 1   
    20     9    32 2   
    21     9    67 1   
    22    10    11 1   
    23    10    13 1   
    24    10    37 1   
    25    10    44 1   
    26    11    12 1   
    27    11    23 1   
    28    11    45 1   
    29    12    31 1   
    30    12    36 1   
    31    12    46 1   
    32    13    14 1   
    33    13    36 1   
    34    13    47 1   
    35    14    38 1   
    36    14    48 1   
    37    14    49 1   
    38    15    16 ar  
    39    15    28 1   
    40    16    42 1   
    41    17    27 1   
    42    17    28 2   
    43    17    50 1   
    44    18    19 1   
    45    18    21 1   
    46    18    34 1   
    47    18    51 1   
    48    19    20 1   
    49    19    24 1   
    50    19    52 1   
    51    20    27 1   
    52    20    33 1   
    53    20    53 1   
    54    21    22 1   
    55    21    33 1   
    56    21    54 1   
    57    22    35 1   
    58    22    55 1   
    59    22    56 1   
    60    26    57 1   
    61    26    58 1   
    62    26    63 1   
    63    34    40 1   
    64    35    39 1   
    65    37    39 1   
    66    38    40 1   
    67    39    41 1   
    68    40    64 1   
    69    40    66 1   
    70    41    59 1   
    71    42    60 1   
    72    42    61 1   
    73    42    62 1   
@<TRIPOS>SUBSTRUCTURE
     1 PWB         1 TEMP              0 ****  ****    0 ROOT
