@<TRIPOS>MOLECULE
PWC
   96   100     1     0     0
SMALL
No Charge or Current Charge


@<TRIPOS>ATOM
      1 C4          25.9440   -25.2000   -46.0740 ca         1 PWC      -0.107000
      2 C14         31.0730   -19.4600   -47.1900 c6         1 PWC       0.333400
      3 C5          25.2910   -25.6140   -44.8990 ca         1 PWC      -0.038000
      4 C6          25.4850   -26.9380   -44.4400 ca         1 PWC       0.094000
      5 C11         29.9150   -22.6940   -48.2190 ce         1 PWC      -0.154000
      6 C7          27.3210   -25.6310   -48.1600 c3         1 PWC       0.005100
      7 C8          28.5990   -24.8260   -47.9600 c2         1 PWC      -0.098400
      8 C9          29.6760   -25.6250   -47.2340 c3         1 PWC      -0.060900
      9 C10         28.7260   -23.5430   -48.3840 ce         1 PWC      -0.180000
     10 C12         29.9720   -21.3990   -48.6050 c2         1 PWC      -0.242200
     11 C13         31.1780   -20.4880   -48.4040 c3         1 PWC       0.213500
     12 C3          26.6840   -26.1010   -46.8540 ca         1 PWC      -0.059300
     13 C1          26.2390   -27.8550   -45.2070 ca         1 PWC       0.113100
     14 C17         33.0300   -18.5120   -45.9050 c          1 PWC       0.710100
     15 C19         31.0610   -19.3600   -44.6750 c6         1 PWC       0.192300
     16 C2          26.8230   -27.4330   -46.4230 ca         1 PWC      -0.121000
     17 C20         30.7580   -20.2250   -45.8980 c6         1 PWC      -0.151400
     18 C22         30.8480   -20.0870   -43.3030 c3         1 PWC      -0.047700
     19 C23         29.4090   -20.5840   -43.0790 cx         1 PWC       0.104300
     20 C24         31.2550   -19.1900   -42.1050 c3         1 PWC      -0.082100
     21 C25         28.8370   -21.9090   -43.5520 cx         1 PWC       0.076000
     22 C26         27.3060   -22.0320   -43.7630 c3         1 PWC       0.201300
     23 C27         26.7590   -23.4370   -43.4220 c3         1 PWC      -0.153400
     24 C28         25.2280   -23.5150   -43.4750 c          1 PWC       0.620100
     25 C36         27.1500   -30.1470   -45.4380 c3         1 PWC       0.149900
     26 C37         30.6930   -18.8990   -50.2740 c3         1 PWC       0.149900
     27 C38         29.6680   -22.9430   -44.3280 c3         1 PWC      -0.080100
     28 C45         26.5950   -20.3170   -47.0480 ca         1 PWC      -0.136600
     29 C46         26.9490   -19.1370   -47.7350 ca         1 PWC      -0.055500
     30 C47         26.6930   -19.0050   -49.1110 ca         1 PWC      -0.121500
     31 C48         26.0600   -20.0420   -49.8210 ca         1 PWC      -0.049300
     32 C49         25.6640   -21.2010   -49.1300 ca         1 PWC      -0.121500
     33 C50         25.9300   -21.3370   -47.7570 ca         1 PWC      -0.055500
     34 C51         25.7880   -19.9040   -51.3170 c3         1 PWC      -0.059100
     35 C52         26.4760   -20.9930   -52.1740 c3         1 PWC       0.157800
     36 N16         32.2860   -18.6890   -47.0460 ns         1 PWC      -0.565900
     37 N31         24.6070   -24.6320   -44.0960 n          1 PWC      -0.243400
     38 N53         27.9390   -20.9290   -52.0360 n2         1 PWC      -0.431200
     39 N54         28.5450   -20.2300   -52.8630 n1         1 PWC       0.221000
     40 N55         29.1200   -19.4970   -53.5160 n1         1 PWC      -0.075000
     41 O15         31.5620   -19.8850   -49.6760 os         1 PWC      -0.461000
     42 O18         32.4400   -18.9500   -44.7460 os         1 PWC      -0.445100
     43 O21         34.1360   -18.0040   -45.9340 o          1 PWC      -0.544000
     44 O29         29.2630   -21.7090   -42.1820 op         1 PWC      -0.436000
     45 O30         26.9720   -21.7660   -45.1460 os         1 PWC      -0.457100
     46 O32         24.5570   -22.6690   -42.8920 o          1 PWC      -0.598100
     47 O34         26.3890   -29.1490   -44.7340 os         1 PWC      -0.356100
     48 O41         27.1150   -19.4960   -44.8570 o          1 PWC      -0.482000
     49 O42         30.0590   -18.4970   -47.3880 oh         1 PWC      -0.728000
     50 Cl33        24.8080   -27.4540   -42.8870 cl         1 PWC      -0.168000
     51 H1          25.8540   -24.1710   -46.3960 ha         1 PWC       0.136000
     52 H2          30.7870   -23.1410   -47.7420 ha         1 PWC       0.168000
     53 H3          26.5870   -25.0370   -48.7180 hc         1 PWC       0.058200
     54 H4          27.5310   -26.4930   -48.8060 hc         1 PWC       0.058200
     55 H6          29.6200   -26.6920   -47.4790 hc         1 PWC       0.045367
     56 H7          30.6880   -25.3040   -47.4980 hc         1 PWC       0.045367
     57 H8          29.5650   -25.5310   -46.1470 hc         1 PWC       0.045367
     58 H11         29.1040   -20.9210   -49.0560 ha         1 PWC       0.193000
     59 H12         32.0060   -21.1500   -48.1170 h1         1 PWC       0.075700
     60 H13         30.4270   -18.4610   -44.6990 h1         1 PWC       0.060700
     61 H14         27.4010   -28.1210   -47.0340 ha         1 PWC       0.130000
     62 H15         29.7070   -20.5360   -45.9080 hc         1 PWC       0.079200
     63 H16         31.3670   -21.1370   -45.8510 hc         1 PWC       0.079200
     64 H17         31.5250   -20.9480   -43.2700 hc         1 PWC       0.070700
     65 H18         28.7030   -19.7720   -42.8990 h1         1 PWC       0.102700
     66 H19         31.1030   -19.7180   -41.1560 hc         1 PWC       0.049700
     67 H20         32.3130   -18.9090   -42.1590 hc         1 PWC       0.049700
     68 H21         30.6570   -18.2700   -42.0840 hc         1 PWC       0.049700
     69 H22         26.8030   -21.3140   -43.0990 h1         1 PWC       0.093700
     70 H23         27.2200   -24.2020   -44.0470 hc         1 PWC       0.087200
     71 H24         27.0450   -23.6700   -42.3910 hc         1 PWC       0.087200
     72 H25         22.9240   -24.9310   -42.8420 h1         1 PWC       0.049033
     73 H26         22.6160   -23.9300   -44.2930 h1         1 PWC       0.049033
     74 H27         22.8010   -25.6970   -44.4510 h1         1 PWC       0.049033
     75 H28         27.1390   -31.0940   -44.8830 h1         1 PWC       0.042367
     76 H29         26.7260   -30.3320   -46.4330 h1         1 PWC       0.042367
     77 H30         28.1960   -29.8330   -45.5520 h1         1 PWC       0.042367
     78 H31         31.0000   -18.7100   -51.3100 h1         1 PWC       0.037700
     79 H32         29.6470   -19.2280   -50.2920 h1         1 PWC       0.037700
     80 H33         30.7510   -17.9410   -49.7420 h1         1 PWC       0.037700
     81 H34         30.7440   -22.7900   -44.2120 hc         1 PWC       0.054367
     82 H35         29.4660   -23.9600   -43.9760 hc         1 PWC       0.054367
     83 H36         29.4370   -22.9120   -45.3980 hc         1 PWC       0.054367
     84 H37         27.4410   -18.3250   -47.2060 ha         1 PWC       0.137000
     85 H38         26.9940   -18.0950   -49.6240 ha         1 PWC       0.116000
     86 H39         25.1500   -22.0020   -49.6550 ha         1 PWC       0.116000
     87 H40         25.6030   -22.2340   -47.2460 ha         1 PWC       0.137000
     88 H41         26.1030   -18.9180   -51.6790 hc         1 PWC       0.057700
     89 H42         24.7070   -19.9590   -51.4940 hc         1 PWC       0.057700
     90 H43         26.1730   -20.8600   -53.2220 h1         1 PWC       0.065700
     91 H44         26.1120   -21.9790   -51.8620 h1         1 PWC       0.065700
     92 H45         32.7560   -18.4160   -47.8990 hn         1 PWC       0.348500
     93 H47         30.5090   -17.6370   -47.2540 ho         1 PWC       0.518000
     94 H5          27.8870   -23.0710   -48.8950 ha         1 PWC       0.182000
     95 C35         23.1490   -24.8090   -43.9090 c3         1 PWC       0.090300
     96 C39         26.9200   -20.4610   -45.5820 c          1 PWC       0.616700
@<TRIPOS>BOND
     1     1     3 ar  
     2     1    12 ar  
     3     1    51 1   
     4     2    11 1   
     5     2    17 1   
     6     2    36 1   
     7     2    49 1   
     8     3     4 ar  
     9     3    37 1   
    10     4    13 ar  
    11     4    50 1   
    12     5     9 1   
    13     5    10 2   
    14     5    52 1   
    15     6     7 1   
    16     6    12 1   
    17     6    53 1   
    18     6    54 1   
    19     7     8 1   
    20     7     9 2   
    21     8    55 1   
    22     8    56 1   
    23     8    57 1   
    24     9    94 1   
    25    10    11 1   
    26    10    58 1   
    27    11    41 1   
    28    11    59 1   
    29    12    16 ar  
    30    13    16 ar  
    31    13    47 1   
    32    14    36 1   
    33    14    42 1   
    34    14    43 2   
    35    15    17 1   
    36    15    18 1   
    37    15    42 1   
    38    15    60 1   
    39    16    61 1   
    40    17    62 1   
    41    17    63 1   
    42    18    19 1   
    43    18    20 1   
    44    18    64 1   
    45    19    21 1   
    46    19    44 1   
    47    19    65 1   
    48    20    66 1   
    49    20    67 1   
    50    20    68 1   
    51    21    22 1   
    52    21    27 1   
    53    21    44 1   
    54    22    23 1   
    55    22    45 1   
    56    22    69 1   
    57    23    24 1   
    58    23    70 1   
    59    23    71 1   
    60    24    37 1   
    61    24    46 2   
    62    25    47 1   
    63    25    75 1   
    64    25    76 1   
    65    25    77 1   
    66    26    41 1   
    67    26    78 1   
    68    26    79 1   
    69    26    80 1   
    70    27    81 1   
    71    27    82 1   
    72    27    83 1   
    73    28    29 ar  
    74    28    33 ar  
    75    28    96 1   
    76    29    30 ar  
    77    29    84 1   
    78    30    31 ar  
    79    30    85 1   
    80    31    32 ar  
    81    31    34 1   
    82    32    33 ar  
    83    32    86 1   
    84    33    87 1   
    85    34    35 1   
    86    34    88 1   
    87    34    89 1   
    88    35    38 1   
    89    35    90 1   
    90    35    91 1   
    91    36    92 1   
    92    37    95 1   
    93    38    39 1   
    94    39    40 3   
    95    45    96 1   
    96    48    96 2   
    97    49    93 1   
    98    72    95 1   
    99    73    95 1   
   100    74    95 1   
@<TRIPOS>SUBSTRUCTURE
     1 PWC         1 TEMP              0 ****  ****    0 ROOT
