@<TRIPOS>MOLECULE
PWC
   96   100     1     0     0
SMALL
abcg2


@<TRIPOS>ATOM
      1 C4          26.3080   -24.9230   -46.3640 ca         1 PWC      -0.107000
      2 C14         31.0820   -19.3200   -47.0030 c6         1 PWC       0.333400
      3 C5          25.7030   -25.2510   -45.1600 ca         1 PWC      -0.038000
      4 C6          25.8720   -26.5370   -44.6380 ca         1 PWC       0.094000
      5 C11         30.1540   -22.4070   -48.2960 ce         1 PWC      -0.154000
      6 C7          27.7520   -25.4250   -48.3540 c3         1 PWC       0.005100
      7 C8          28.9980   -24.6030   -48.1130 c2         1 PWC      -0.098400
      8 C9          30.1300   -25.3450   -47.4670 c3         1 PWC      -0.060900
      9 C10         29.0270   -23.3030   -48.4580 ce         1 PWC      -0.180000
     10 C12         30.1200   -21.0910   -48.5370 c2         1 PWC      -0.242200
     11 C13         31.2970   -20.2110   -48.2580 c3         1 PWC       0.213500
     12 C3          27.0820   -25.8440   -47.0640 ca         1 PWC      -0.059300
     13 C1          26.6500   -27.4710   -45.3230 ca         1 PWC       0.113100
     14 C17         33.0250   -18.4580   -45.6600 c          1 PWC       0.710100
     15 C19         31.1310   -19.4380   -44.5020 c6         1 PWC       0.192300
     16 C2          27.2430   -27.1180   -46.5320 ca         1 PWC      -0.121000
     17 C20         30.8340   -20.1890   -45.7790 c6         1 PWC      -0.151400
     18 C22         30.9800   -20.2910   -43.2400 c3         1 PWC      -0.047700
     19 C23         29.5410   -20.7240   -43.0800 cx         1 PWC       0.104300
     20 C24         31.4110   -19.5320   -41.9810 c3         1 PWC      -0.082100
     21 C25         28.9470   -21.9830   -43.5590 cx         1 PWC       0.076000
     22 C26         27.4350   -21.9970   -43.7500 c3         1 PWC       0.201300
     23 C27         26.8120   -23.3290   -43.3520 c3         1 PWC      -0.153400
     24 C28         25.3290   -23.3350   -43.6640 c          1 PWC       0.620100
     25 C36         26.0230   -29.7460   -45.3290 c3         1 PWC       0.149900
     26 C37         30.7570   -18.9140   -50.2590 c3         1 PWC       0.149900
     27 C38         29.7190   -23.0310   -44.3160 c3         1 PWC      -0.080100
     28 C45         26.4530   -20.5470   -47.0080 ca         1 PWC      -0.136600
     29 C46         26.9210   -19.5920   -47.9090 ca         1 PWC      -0.055500
     30 C47         26.5130   -19.6310   -49.2340 ca         1 PWC      -0.121500
     31 C48         25.6170   -20.6040   -49.6800 ca         1 PWC      -0.049300
     32 C49         25.1070   -21.5170   -48.7550 ca         1 PWC      -0.121500
     33 C50         25.5230   -21.4950   -47.4340 ca         1 PWC      -0.055500
     34 C51         25.2580   -20.7170   -51.1350 c3         1 PWC      -0.059100
     35 C52         26.1100   -21.7640   -51.8620 c3         1 PWC       0.157800
     36 N16         32.2830   -18.5370   -46.7890 ns         1 PWC      -0.565900
     37 N31         24.8660   -24.3010   -44.4990 n          1 PWC      -0.243400
     38 N53         27.5630   -21.4570   -51.8360 n2         1 PWC      -0.431200
     39 N54         27.9090   -20.4300   -52.3990 n1         1 PWC       0.221000
     40 N55         28.3390   -19.5070   -52.8900 n1         1 PWC      -0.075000
     41 O15         31.7430   -19.4080   -49.3540 os         1 PWC      -0.461000
     42 O18         32.5120   -18.9860   -44.5320 os         1 PWC      -0.445100
     43 O21         34.1270   -17.9340   -45.6160 o          1 PWC      -0.544000
     44 O29         29.2950   -21.8140   -42.1680 op         1 PWC      -0.436000
     45 O30         27.0950   -21.8000   -45.1460 os         1 PWC      -0.457100
     46 O32         24.5880   -22.4860   -43.1690 o          1 PWC      -0.598100
     47 O34         26.8640   -28.7120   -44.7890 os         1 PWC      -0.356100
     48 O41         27.2770   -19.5550   -44.9940 o          1 PWC      -0.482000
     49 O42         29.9850   -18.4600   -47.2830 oh         1 PWC      -0.728000
     50 CL33        25.1320   -26.9710   -43.1260 cl         1 PWC      -0.168000
     51 H1          26.1810   -23.9250   -46.7530 ha         1 PWC       0.136000
     52 H2          31.0860   -22.8320   -47.9380 ha         1 PWC       0.168000
     53 H3          27.0470   -24.8470   -48.9540 hc         1 PWC       0.058200
     54 H4          28.0180   -26.3210   -48.9210 hc         1 PWC       0.058200
     55 H6          30.4020   -26.2170   -48.0700 hc         1 PWC       0.045367
     56 H7          31.0170   -24.7360   -47.3210 hc         1 PWC       0.045367
     57 H8          29.8210   -25.7270   -46.4900 hc         1 PWC       0.045367
     58 H11         29.2020   -20.6260   -48.8700 ha         1 PWC       0.193000
     59 H12         32.1530   -20.8430   -48.0120 h1         1 PWC       0.075700
     60 H13         30.5020   -18.5460   -44.4150 h1         1 PWC       0.060700
     61 H14         27.8410   -27.8590   -47.0470 ha         1 PWC       0.130000
     62 H15         29.7990   -20.5120   -45.8000 hc         1 PWC       0.079200
     63 H16         31.4670   -21.0760   -45.8220 hc         1 PWC       0.079200
     64 H17         31.6130   -21.1720   -43.3590 hc         1 PWC       0.070700
     65 H18         28.8510   -19.8940   -42.9470 h1         1 PWC       0.102700
     66 H19         31.2710   -20.1600   -41.1000 hc         1 PWC       0.049700
     67 H20         32.4600   -19.2470   -42.0350 hc         1 PWC       0.049700
     68 H21         30.8120   -18.6270   -41.8540 hc         1 PWC       0.049700
     69 H22         26.9940   -21.1860   -43.1730 h1         1 PWC       0.093700
     70 H23         27.3290   -24.1510   -43.8370 hc         1 PWC       0.087200
     71 H24         26.9240   -23.4490   -42.2730 hc         1 PWC       0.087200
     72 H25         22.8860   -23.7640   -44.1300 h1         1 PWC       0.049033
     73 H26         23.2830   -23.9730   -45.8510 h1         1 PWC       0.049033
     74 H27         23.1080   -25.3960   -44.8010 h1         1 PWC       0.049033
     75 H28         26.3020   -30.6660   -44.8190 h1         1 PWC       0.042367
     76 H29         24.9720   -29.5200   -45.1380 h1         1 PWC       0.042367
     77 H30         26.1880   -29.8520   -46.4030 h1         1 PWC       0.042367
     78 H31         31.2840   -18.2520   -50.9440 h1         1 PWC       0.037700
     79 H32         30.3050   -19.7280   -50.8310 h1         1 PWC       0.037700
     80 H33         29.9750   -18.3540   -49.7460 h1         1 PWC       0.037700
     81 H34         30.7910   -22.8760   -44.2320 hc         1 PWC       0.054367
     82 H35         29.4910   -24.0240   -43.9270 hc         1 PWC       0.054367
     83 H36         29.4460   -23.0100   -45.3710 hc         1 PWC       0.054367
     84 H37         27.6480   -18.8620   -47.5820 ha         1 PWC       0.137000
     85 H38         26.9120   -18.9090   -49.9370 ha         1 PWC       0.116000
     86 H39         24.3870   -22.2600   -49.0760 ha         1 PWC       0.116000
     87 H40         25.1100   -22.1990   -46.7260 ha         1 PWC       0.137000
     88 H41         25.3690   -19.7510   -51.6320 hc         1 PWC       0.057700
     89 H42         24.2140   -21.0210   -51.2460 hc         1 PWC       0.057700
     90 H43         25.7800   -21.8610   -52.9000 h1         1 PWC       0.065700
     91 H44         26.0200   -22.7330   -51.3770 h1         1 PWC       0.065700
     92 H45         32.7100   -18.1470   -47.6180 hn         1 PWC       0.348500
     93 H47         29.8830   -17.8330   -46.5550 ho         1 PWC       0.518000
     94 H5          28.1310   -22.8680   -48.8900 ha         1 PWC       0.182000
     95 C35         23.4450   -24.3610   -44.8430 c3         1 PWC       0.090300
     96 C39         26.9740   -20.5460   -45.6210 c          1 PWC       0.616700
@<TRIPOS>BOND
     1     1     3 ar  
     2     1    12 ar  
     3     1    51 1   
     4     2    11 1   
     5     2    17 1   
     6     2    36 1   
     7     2    49 1   
     8     3     4 ar  
     9     3    37 1   
    10     4    13 ar  
    11     4    50 1   
    12     5     9 1   
    13     5    10 2   
    14     5    52 1   
    15     6     7 1   
    16     6    12 1   
    17     6    53 1   
    18     6    54 1   
    19     7     8 1   
    20     7     9 2   
    21     8    55 1   
    22     8    56 1   
    23     8    57 1   
    24     9    94 1   
    25    10    11 1   
    26    10    58 1   
    27    11    41 1   
    28    11    59 1   
    29    12    16 ar  
    30    13    16 ar  
    31    13    47 1   
    32    14    36 1   
    33    14    42 1   
    34    14    43 2   
    35    15    17 1   
    36    15    18 1   
    37    15    42 1   
    38    15    60 1   
    39    16    61 1   
    40    17    62 1   
    41    17    63 1   
    42    18    19 1   
    43    18    20 1   
    44    18    64 1   
    45    19    21 1   
    46    19    44 1   
    47    19    65 1   
    48    20    66 1   
    49    20    67 1   
    50    20    68 1   
    51    21    22 1   
    52    21    27 1   
    53    21    44 1   
    54    22    23 1   
    55    22    45 1   
    56    22    69 1   
    57    23    24 1   
    58    23    70 1   
    59    23    71 1   
    60    24    37 1   
    61    24    46 2   
    62    25    47 1   
    63    25    75 1   
    64    25    76 1   
    65    25    77 1   
    66    26    41 1   
    67    26    78 1   
    68    26    79 1   
    69    26    80 1   
    70    27    81 1   
    71    27    82 1   
    72    27    83 1   
    73    28    29 ar  
    74    28    33 ar  
    75    28    96 1   
    76    29    30 ar  
    77    29    84 1   
    78    30    31 ar  
    79    30    85 1   
    80    31    32 ar  
    81    31    34 1   
    82    32    33 ar  
    83    32    86 1   
    84    33    87 1   
    85    34    35 1   
    86    34    88 1   
    87    34    89 1   
    88    35    38 1   
    89    35    90 1   
    90    35    91 1   
    91    36    92 1   
    92    37    95 1   
    93    38    39 1   
    94    39    40 3   
    95    45    96 1   
    96    48    96 2   
    97    49    93 1   
    98    72    95 1   
    99    73    95 1   
   100    74    95 1   
@<TRIPOS>SUBSTRUCTURE
     1 PWC         1 TEMP              0 ****  ****    0 ROOT
