@<TRIPOS>MOLECULE
PWD
   15    16     1     0     0
SMALL
No Charge or Current Charge


@<TRIPOS>ATOM
      1 N1           2.2250     0.8760     0.0100 na         1 PWD      -0.322400
      2 C4           1.7970    -1.3580    -0.0020 cc         1 PWD      -0.238200
      3 C5           0.5640    -0.6330    -0.0070 ca         1 PWD      -0.112800
      4 C6          -0.7520    -1.1120    -0.0170 ca         1 PWD      -0.070000
      5 N           -0.1040     1.6670    -0.0010 nb         1 PWD      -0.659000
      6 C           -1.7630    -0.1350    -0.0190 ca         1 PWD       0.083000
      7 C1          -1.3980     1.2350    -0.0110 ca         1 PWD       0.326900
      8 C2           0.8520     0.7160     0.0010 ca         1 PWD       0.349500
      9 C3           2.8130    -0.4160     0.0090 cd         1 PWD      -0.145100
     10 F           -3.0650    -0.5030    -0.0290 f          1 PWD      -0.177000
     11 H1           2.7090     1.7660     0.0170 hn         1 PWD       0.363000
     12 H2           1.9310    -2.4400    -0.0050 ha         1 PWD       0.211000
     13 H3          -0.9820    -2.1740    -0.0230 ha         1 PWD       0.138000
     14 H4          -2.1650     2.0080    -0.0130 h4         1 PWD       0.036100
     15 H5           3.8920    -0.5640     0.0150 h4         1 PWD       0.217000
@<TRIPOS>BOND
     1     1     8 1   
     2     1     9 1   
     3     1    11 1   
     4     2     3 1   
     5     2     9 2   
     6     2    12 1   
     7     3     4 ar  
     8     3     8 ar  
     9     4     6 ar  
    10     4    13 1   
    11     5     7 ar  
    12     5     8 ar  
    13     6     7 ar  
    14     6    10 1   
    15     7    14 1   
    16     9    15 1   
@<TRIPOS>SUBSTRUCTURE
     1 PWD         1 TEMP              0 ****  ****    0 ROOT
