@<TRIPOS>MOLECULE
PWD
   15    16     1     0     0
SMALL
abcg2


@<TRIPOS>ATOM
      1 N1           2.1700     0.8430     0.0100 na         1 PWD      -0.322400
      2 C4           1.8300    -1.3720    -0.0020 cc         1 PWD      -0.238200
      3 C5           0.5630    -0.7190    -0.0070 ca         1 PWD      -0.112800
      4 C6          -0.7720    -1.1210    -0.0170 ca         1 PWD      -0.070000
      5 N           -0.0880     1.6360    -0.0020 nb         1 PWD      -0.659000
      6 C           -1.7070    -0.1130    -0.0190 ca         1 PWD       0.083000
      7 C1          -1.3490     1.2360    -0.0110 ca         1 PWD       0.326900
      8 C2           0.8190     0.6740     0.0010 ca         1 PWD       0.349500
      9 C3           2.7720    -0.3820     0.0080 cd         1 PWD      -0.145100
     10 F           -3.0170    -0.4190    -0.0280 f          1 PWD      -0.177000
     11 H1           2.6480     1.7290     0.0170 hn         1 PWD       0.363000
     12 H2           2.0220    -2.4330    -0.0050 ha         1 PWD       0.211000
     13 H3          -1.0650    -2.1630    -0.0230 ha         1 PWD       0.138000
     14 H4          -2.1190     1.9990    -0.0130 h4         1 PWD       0.036100
     15 H5           3.8470    -0.4610     0.0150 h4         1 PWD       0.217000
@<TRIPOS>BOND
     1     1     8 1   
     2     1     9 1   
     3     1    11 1   
     4     2     3 1   
     5     2     9 2   
     6     2    12 1   
     7     3     4 ar  
     8     3     8 ar  
     9     4     6 ar  
    10     4    13 1   
    11     5     7 ar  
    12     5     8 ar  
    13     6     7 ar  
    14     6    10 1   
    15     7    14 1   
    16     9    15 1   
@<TRIPOS>SUBSTRUCTURE
     1 PWD         1 TEMP              0 ****  ****    0 ROOT
