@<TRIPOS>MOLECULE
PWF
   40    41     1     0     0
SMALL
No Charge or Current Charge


@<TRIPOS>ATOM
      1 CAA          6.6120     2.4500    -0.0890 c3         1 PWF       0.156900
      2 OAP          6.6810     1.0120    -0.0940 os         1 PWF      -0.368100
      3 CAV          5.5470     0.2150    -0.0860 ca         1 PWF       0.039100
      4 CAM          4.2400     0.7540    -0.0740 ca         1 PWF      -0.127000
      5 CAT          5.7190    -1.1830    -0.0920 ca         1 PWF       0.140100
      6 OAC          6.9780    -1.7100    -0.1040 oh         1 PWF      -0.527100
      7 CAL          4.6050    -2.0340    -0.0840 ca         1 PWF      -0.134000
      8 CAK          3.3070    -1.4950    -0.0720 ca         1 PWF      -0.074000
      9 CAS          3.1140    -0.0970    -0.0660 ca         1 PWF      -0.085800
     10 CAE          1.7470     0.5040    -0.0530 ce         1 PWF      -0.067200
     11 CAD          0.5320    -0.1200    -0.0460 cf         1 PWF      -0.282200
     12 CAR         -0.7670     0.5930    -0.0330 c          1 PWF       0.598300
     13 OAB         -0.8830     1.8110    -0.0260 o          1 PWF      -0.496000
     14 OAQ         -1.8130    -0.2880    -0.0290 os         1 PWF      -0.448100
     15 CAN         -3.1470     0.2490    -0.0160 c3         1 PWF       0.167600
     16 CAO         -4.1310    -0.9350    -0.0150 c3         1 PWF      -0.036100
     17 CAU         -5.5820    -0.4710    -0.0010 ca         1 PWF      -0.085300
     18 CAI         -6.2470    -0.2540     1.2210 ca         1 PWF      -0.104000
     19 CAG         -7.5840     0.1800     1.2330 ca         1 PWF      -0.109000
     20 CAF         -8.2630     0.4020     0.0230 ca         1 PWF      -0.107000
     21 CAH         -7.6040     0.1890    -1.1990 ca         1 PWF      -0.109000
     22 CAJ         -6.2670    -0.2450    -1.2110 ca         1 PWF      -0.104000
     23 H1           6.0800     2.8190    -0.9760 h1         1 PWF       0.043700
     24 H2           6.0960     2.8140     0.8080 h1         1 PWF       0.043700
     25 H3           7.6220     2.8800    -0.0970 h1         1 PWF       0.043700
     26 H4           4.0850     1.8290    -0.0690 ha         1 PWF       0.121000
     27 H5           7.5960    -0.9450    -0.1070 ho         1 PWF       0.485000
     28 H6           4.7460    -3.1120    -0.0890 ha         1 PWF       0.134000
     29 H7           2.4600    -2.1750    -0.0660 ha         1 PWF       0.120000
     30 H8           1.7480     1.5970    -0.0480 ha         1 PWF       0.190000
     31 H10          0.4700    -1.2050    -0.0510 ha         1 PWF       0.198000
     32 H12         -3.3120     0.8640     0.8790 h1         1 PWF       0.051700
     33 H13         -3.3260     0.8720    -0.9030 h1         1 PWF       0.051700
     34 H14         -3.9410    -1.5580    -0.8970 hc         1 PWF       0.059700
     35 H15         -3.9280    -1.5660     0.8590 hc         1 PWF       0.059700
     36 H16         -5.7290    -0.4210     2.1630 ha         1 PWF       0.112000
     37 H17         -8.0930     0.3460     2.1810 ha         1 PWF       0.113000
     38 H18         -9.2980     0.7380     0.0330 ha         1 PWF       0.113000
     39 H19         -8.1280     0.3610    -2.1370 ha         1 PWF       0.113000
     40 H20         -5.7640    -0.4050    -2.1630 ha         1 PWF       0.112000
@<TRIPOS>BOND
     1     1     2 1   
     2     1    23 1   
     3     1    24 1   
     4     1    25 1   
     5     2     3 1   
     6     3     4 ar  
     7     3     5 ar  
     8     4     9 ar  
     9     4    26 1   
    10     5     6 1   
    11     5     7 ar  
    12     6    27 1   
    13     7     8 ar  
    14     7    28 1   
    15     8     9 ar  
    16     8    29 1   
    17     9    10 1   
    18    10    11 2   
    19    10    30 1   
    20    11    12 1   
    21    11    31 1   
    22    12    13 2   
    23    12    14 1   
    24    14    15 1   
    25    15    16 1   
    26    15    32 1   
    27    15    33 1   
    28    16    17 1   
    29    16    34 1   
    30    16    35 1   
    31    17    18 ar  
    32    17    22 ar  
    33    18    19 ar  
    34    18    36 1   
    35    19    20 ar  
    36    19    37 1   
    37    20    21 ar  
    38    20    38 1   
    39    21    22 ar  
    40    21    39 1   
    41    22    40 1   
@<TRIPOS>SUBSTRUCTURE
     1 PWF         1 TEMP              0 ****  ****    0 ROOT
