@<TRIPOS>MOLECULE
PWF
   40    41     1     0     0
SMALL
bcc


@<TRIPOS>ATOM
      1 CAA          6.3750     2.4620    -0.0890 c3         1 PWF       0.133700
      2 OAP          6.5210     1.0580    -0.1010 os         1 PWF      -0.344900
      3 CAV          5.4120     0.2900    -0.0900 ca         1 PWF       0.039100
      4 CAM          4.1090     0.7490    -0.0730 ca         1 PWF      -0.145000
      5 CAT          5.6640    -1.0920    -0.0990 ca         1 PWF       0.140100
      6 OAC          6.9190    -1.5670    -0.1160 oh         1 PWF      -0.488100
      7 CAL          4.5990    -1.9790    -0.0900 ca         1 PWF      -0.152000
      8 CAK          3.2960    -1.5120    -0.0740 ca         1 PWF      -0.092000
      9 CAS          3.0290    -0.1450    -0.0650 ca         1 PWF      -0.085800
     10 CAE          1.6840     0.4040    -0.0480 ce         1 PWF      -0.017200
     11 CAD          0.5290    -0.2740    -0.0360 cf         1 PWF      -0.232200
     12 CAR         -0.7520     0.4420    -0.0230 c          1 PWF       0.647300
     13 OAB         -0.8860     1.6440    -0.0190 o          1 PWF      -0.545000
     14 OAQ         -1.7780    -0.4070    -0.0140 os         1 PWF      -0.424900
     15 CAN         -3.0950     0.1450    -0.0070 c3         1 PWF       0.144400
     16 CAO         -4.0810    -1.0080    -0.0050 c3         1 PWF      -0.036100
     17 CAU         -5.4910    -0.4850     0.0010 ca         1 PWF      -0.085300
     18 CAI         -6.1460    -0.2170     1.1990 ca         1 PWF      -0.122000
     19 CAG         -7.4300     0.3080     1.2070 ca         1 PWF      -0.127000
     20 CAF         -8.0800     0.5750     0.0110 ca         1 PWF      -0.125000
     21 CAH         -7.4380     0.3110    -1.1900 ca         1 PWF      -0.127000
     22 CAJ         -6.1540    -0.2130    -1.1930 ca         1 PWF      -0.122000
     23 H1           5.8350     2.8210    -0.9690 h1         1 PWF       0.043700
     24 H2           5.8590     2.8080     0.8100 h1         1 PWF       0.043700
     25 H3           7.3770     2.8800    -0.1000 h1         1 PWF       0.043700
     26 H4           3.9070     1.8120    -0.0650 ha         1 PWF       0.139000
     27 H5           7.5460    -0.8350    -0.1170 ho         1 PWF       0.446000
     28 H6           4.7980    -3.0420    -0.0990 ha         1 PWF       0.152000
     29 H7           2.4910    -2.2340    -0.0700 ha         1 PWF       0.138000
     30 H8           1.6240     1.4880    -0.0470 ha         1 PWF       0.140000
     31 H10          0.4920    -1.3560    -0.0360 ha         1 PWF       0.148000
     32 H12         -3.2350     0.7740     0.8760 h1         1 PWF       0.051700
     33 H13         -3.2420     0.7770    -0.8870 h1         1 PWF       0.051700
     34 H14         -3.9140    -1.6350    -0.8840 hc         1 PWF       0.059700
     35 H15         -3.9080    -1.6370     0.8710 hc         1 PWF       0.059700
     36 H16         -5.6490    -0.4270     2.1390 ha         1 PWF       0.130000
     37 H17         -7.9240     0.5040     2.1490 ha         1 PWF       0.131000
     38 H18         -9.0820     0.9830     0.0150 ha         1 PWF       0.131000
     39 H19         -7.9390     0.5110    -2.1290 ha         1 PWF       0.131000
     40 H20         -5.6620    -0.4200    -2.1360 ha         1 PWF       0.130000
@<TRIPOS>BOND
     1     1     2 1   
     2     1    23 1   
     3     1    24 1   
     4     1    25 1   
     5     2     3 1   
     6     3     4 ar  
     7     3     5 ar  
     8     4     9 ar  
     9     4    26 1   
    10     5     6 1   
    11     5     7 ar  
    12     6    27 1   
    13     7     8 ar  
    14     7    28 1   
    15     8     9 ar  
    16     8    29 1   
    17     9    10 1   
    18    10    11 2   
    19    10    30 1   
    20    11    12 1   
    21    11    31 1   
    22    12    13 2   
    23    12    14 1   
    24    14    15 1   
    25    15    16 1   
    26    15    32 1   
    27    15    33 1   
    28    16    17 1   
    29    16    34 1   
    30    16    35 1   
    31    17    18 ar  
    32    17    22 ar  
    33    18    19 ar  
    34    18    36 1   
    35    19    20 ar  
    36    19    37 1   
    37    20    21 ar  
    38    20    38 1   
    39    21    22 ar  
    40    21    39 1   
    41    22    40 1   
@<TRIPOS>SUBSTRUCTURE
     1 PWF         1 TEMP              0 ****  ****    0 ROOT
