@<TRIPOS>MOLECULE
PWG
   20    21     1     0     0
SMALL
bcc


@<TRIPOS>ATOM
      1 N1           0.0160     1.5150     0.0230 nc         1 PWG      -0.071000
      2 C4           0.9010    -1.8690     0.2030 cd         1 PWG      -0.026300
      3 C5          -0.2710     0.2330     0.0560 cd         1 PWG      -0.026300
      4 C6           1.8750     0.4390     0.1730 cd         1 PWG       0.218800
      5 C7           3.3250     0.1220     0.2990 c3         1 PWG       0.440600
      6 N            0.8870    -0.5010     0.1540 na         1 PWG      -0.073200
      7 C1          -1.5120    -0.4520     0.0080 cd         1 PWG      -0.175300
      8 C2          -1.5040    -1.8100     0.0630 cc         1 PWG      -0.034000
      9 C3          -0.2790    -2.5240     0.1630 cc         1 PWG      -0.175000
     10 F           -3.8510    -0.4150    -0.1350 f          1 PWG      -0.222967
     11 F1          -2.8990     1.1910     0.9350 f          1 PWG      -0.222967
     12 F2           3.6920    -0.7110    -0.7160 f          1 PWG      -0.220800
     13 F3           4.0320     1.2620     0.1760 f          1 PWG      -0.220800
     14 F4          -2.7690     1.1030    -1.2100 f          1 PWG      -0.222967
     15 N2           1.3500     1.6250     0.0980 nc         1 PWG      -0.291700
     16 H1           1.8570    -2.3640     0.2770 h4         1 PWG       0.178000
     17 H2           3.5830    -0.3610     1.2430 h2         1 PWG       0.072700
     18 H3          -2.4250    -2.3740     0.0290 ha         1 PWG       0.165000
     19 H4          -0.2850    -3.6020     0.2040 ha         1 PWG       0.164000
     20 C           -2.7640     0.3560    -0.1010 c3         1 PWG       0.744200
@<TRIPOS>BOND
     1     1     3 2   
     2     1    15 1   
     3     2     6 1   
     4     2     9 2   
     5     2    16 1   
     6     3     6 1   
     7     3     7 1   
     8     4     5 1   
     9     4     6 1   
    10     4    15 2   
    11     5    12 1   
    12     5    13 1   
    13     5    17 1   
    14     7     8 2   
    15     7    20 1   
    16     8     9 1   
    17     8    18 1   
    18     9    19 1   
    19    10    20 1   
    20    11    20 1   
    21    14    20 1   
@<TRIPOS>SUBSTRUCTURE
     1 PWG         1 TEMP              0 ****  ****    0 ROOT
