@<TRIPOS>MOLECULE
PWG
   20    21     1     0     0
SMALL
No Charge or Current Charge


@<TRIPOS>ATOM
      1 N1          -0.0000     1.5030    -0.0450 nc         1 PWG      -0.071000
      2 C4           0.9750    -1.8620     0.2520 cd         1 PWG      -0.059000
      3 C5          -0.2860     0.2120     0.0390 cd         1 PWG      -0.077000
      4 C6           1.9180     0.4090     0.1500 cd         1 PWG       0.218800
      5 C7           3.3930     0.0870     0.2500 c3         1 PWG       0.198000
      6 N            0.8770    -0.4720     0.1660 na         1 PWG       0.028200
      7 C1          -1.5770    -0.4190     0.0090 cd         1 PWG      -0.175300
      8 C2          -1.5170    -1.8010     0.1100 cc         1 PWG      -0.016000
      9 C3          -0.2580    -2.5010     0.2270 cc         1 PWG      -0.157000
     10 F           -3.9670    -0.4170    -0.1250 f          1 PWG      -0.101667
     11 F1          -3.0210     1.2530     0.8900 f          1 PWG      -0.101667
     12 F2           3.8760    -0.3990    -0.9170 f          1 PWG      -0.099500
     13 F3           4.1400     1.1740     0.5610 f          1 PWG      -0.099500
     14 F4          -2.8990     1.0820    -1.2760 f          1 PWG      -0.101667
     15 N2           1.3960     1.6300     0.0220 nc         1 PWG      -0.291700
     16 H1           1.9460    -2.3370     0.3320 h4         1 PWG       0.160000
     17 H2           3.5480    -0.6670     1.0290 h2         1 PWG       0.072700
     18 H3          -2.4250    -2.3990     0.0990 ha         1 PWG       0.147000
     19 H4          -0.2940    -3.5850     0.2950 ha         1 PWG       0.146000
     20 C           -2.8670     0.3720    -0.1250 c3         1 PWG       0.380300
@<TRIPOS>BOND
     1     1     3 2   
     2     1    15 1   
     3     2     6 1   
     4     2     9 2   
     5     2    16 1   
     6     3     6 1   
     7     3     7 1   
     8     4     5 1   
     9     4     6 1   
    10     4    15 2   
    11     5    12 1   
    12     5    13 1   
    13     5    17 1   
    14     7     8 2   
    15     7    20 1   
    16     8     9 1   
    17     8    18 1   
    18     9    19 1   
    19    10    20 1   
    20    11    20 1   
    21    14    20 1   
@<TRIPOS>SUBSTRUCTURE
     1 PWG         1 TEMP              0 ****  ****    0 ROOT
