@<TRIPOS>MOLECULE
PWH
   34    34     1     0     0
SMALL
No Charge or Current Charge


@<TRIPOS>ATOM
      1 CAA         -5.2130    -0.1300     1.6130 c3         1 PWH      -0.062400
      2 CAN         -5.6400    -0.5160     0.2050 c2         1 PWH      -0.082400
      3 CAB         -6.7360    -1.5660     0.1990 c3         1 PWH      -0.062400
      4 CAH         -5.1210    -0.0020    -0.9260 c2         1 PWH      -0.239200
      5 CAL         -4.0350     1.0450    -1.0430 c3         1 PWH       0.207800
      6 OAM         -2.7860     0.4040    -0.7440 os         1 PWH      -0.442100
      7 CAO         -1.6530     1.1670    -0.7710 c          1 PWH       0.596300
      8 OAC         -1.6230     2.3610    -1.0360 o          1 PWH      -0.502000
      9 CAF         -0.4570     0.3560    -0.4320 ce         1 PWH      -0.277200
     10 CAG          0.8200     0.8390    -0.3750 cf         1 PWH      -0.071200
     11 CAP          2.0770     0.1320    -0.0510 ca         1 PWH      -0.081800
     12 CAK          3.2920     0.8500    -0.0560 ca         1 PWH      -0.135000
     13 CAR          4.5040     0.2040     0.2480 ca         1 PWH       0.037100
     14 OAE          5.6820     0.9060     0.2410 oh         1 PWH      -0.557100
     15 CAQ          4.5070    -1.1700     0.5600 ca         1 PWH       0.140100
     16 OAD          5.6850    -1.7900     0.8530 oh         1 PWH      -0.529100
     17 CAJ          3.3050    -1.8920     0.5670 ca         1 PWH      -0.131000
     18 CAI          2.0940    -1.2450     0.2630 ca         1 PWH      -0.075000
     19 H1          -4.8450    -1.0040     2.1640 hc         1 PWH       0.043033
     20 H2          -4.4110     0.6170     1.6220 hc         1 PWH       0.043033
     21 H3          -6.0540     0.2890     2.1780 hc         1 PWH       0.043033
     22 H4          -7.6310    -1.2050     0.7190 hc         1 PWH       0.043033
     23 H5          -7.0350    -1.8350    -0.8210 hc         1 PWH       0.043033
     24 H6          -6.4050    -2.4850     0.6980 hc         1 PWH       0.043033
     25 H7          -5.4890    -0.3420    -1.8950 ha         1 PWH       0.178000
     26 H8          -4.0240     1.4580    -2.0610 h1         1 PWH       0.052700
     27 H9          -4.2310     1.8720    -0.3460 h1         1 PWH       0.052700
     28 H10         -0.6590    -0.6910    -0.2210 ha         1 PWH       0.199000
     29 H12          0.9540     1.9010    -0.5980 ha         1 PWH       0.190000
     30 H14          3.2920     1.9100    -0.2970 ha         1 PWH       0.117000
     31 H15          5.4950     1.8420     0.0040 ho         1 PWH       0.477000
     32 H16          6.3770    -1.0930     0.7850 ho         1 PWH       0.485000
     33 H17          3.3110    -2.9520     0.8090 ha         1 PWH       0.134000
     34 H18          1.1760    -1.8250     0.2760 ha         1 PWH       0.122000
@<TRIPOS>BOND
     1     1     2 1   
     2     1    19 1   
     3     1    20 1   
     4     1    21 1   
     5     2     3 1   
     6     2     4 2   
     7     3    22 1   
     8     3    23 1   
     9     3    24 1   
    10     4     5 1   
    11     4    25 1   
    12     5     6 1   
    13     5    26 1   
    14     5    27 1   
    15     6     7 1   
    16     7     8 2   
    17     7     9 1   
    18     9    10 2   
    19     9    28 1   
    20    10    11 1   
    21    10    29 1   
    22    11    12 ar  
    23    11    18 ar  
    24    12    13 ar  
    25    12    30 1   
    26    13    14 1   
    27    13    15 ar  
    28    14    31 1   
    29    15    16 1   
    30    15    17 ar  
    31    16    32 1   
    32    17    18 ar  
    33    17    33 1   
    34    18    34 1   
@<TRIPOS>SUBSTRUCTURE
     1 PWH         1 TEMP              0 ****  ****    0 ROOT
