@<TRIPOS>MOLECULE
PWH
   34    34     1     0     0
SMALL
bcc


@<TRIPOS>ATOM
      1 CAA         -6.0870     0.4240     1.4500 c3         1 PWH      -0.062400
      2 CAN         -5.8700    -0.4400     0.2440 c2         1 PWH      -0.082400
      3 CAB         -6.8640    -1.5550     0.1030 c3         1 PWH      -0.062400
      4 CAH         -4.8990    -0.2770    -0.6580 c2         1 PWH      -0.189200
      5 CAL         -3.8650     0.7950    -0.6660 c3         1 PWH       0.184600
      6 OAM         -2.5860     0.1580    -0.4870 os         1 PWH      -0.418900
      7 CAO         -1.5040     0.9300    -0.4890 c          1 PWH       0.645300
      8 OAC         -1.5430     2.1330    -0.6260 o          1 PWH      -0.551000
      9 CAF         -0.2860     0.1310    -0.3030 ce         1 PWH      -0.227200
     10 CAG          0.9150     0.7200    -0.2460 cf         1 PWH      -0.021200
     11 CAP          2.2010     0.0650    -0.0680 ca         1 PWH      -0.081800
     12 CAK          3.3520     0.8620    -0.0270 ca         1 PWH      -0.153000
     13 CAR          4.6060     0.3050     0.1380 ca         1 PWH       0.037100
     14 OAE          5.7530     1.0170     0.1860 oh         1 PWH      -0.518100
     15 CAQ          4.7370    -1.0850     0.2680 ca         1 PWH       0.140100
     16 OAD          5.9360    -1.6690     0.4290 oh         1 PWH      -0.490100
     17 CAJ          3.5990    -1.8810     0.2280 ca         1 PWH      -0.149000
     18 CAI          2.3460    -1.3170     0.0640 ca         1 PWH      -0.093000
     19 H1          -6.0910    -0.1900     2.3540 hc         1 PWH       0.043033
     20 H2          -5.3400     1.2040     1.5810 hc         1 PWH       0.043033
     21 H3          -7.0660     0.9040     1.4000 hc         1 PWH       0.043033
     22 H4          -7.8820    -1.1610     0.0550 hc         1 PWH       0.043033
     23 H5          -6.6900    -2.1580    -0.7870 hc         1 PWH       0.043033
     24 H6          -6.8270    -2.2130     0.9750 hc         1 PWH       0.043033
     25 H7          -4.8500    -0.9740    -1.4900 ha         1 PWH       0.128000
     26 H8          -3.8690     1.3250    -1.6220 h1         1 PWH       0.052700
     27 H9          -4.0220     1.5330     0.1200 h1         1 PWH       0.052700
     28 H10         -0.4060    -0.9420    -0.2140 ha         1 PWH       0.149000
     29 H12          0.9570     1.8010    -0.3380 ha         1 PWH       0.140000
     30 H14          3.2570     1.9380    -0.1240 ha         1 PWH       0.135000
     31 H15          5.5810     1.9600     0.0850 ho         1 PWH       0.438000
     32 H16          6.6410    -1.0110     0.4310 ho         1 PWH       0.446000
     33 H17          3.7050    -2.9530     0.3270 ha         1 PWH       0.152000
     34 H18          1.4840    -1.9700     0.0370 ha         1 PWH       0.140000
@<TRIPOS>BOND
     1     1     2 1   
     2     1    19 1   
     3     1    20 1   
     4     1    21 1   
     5     2     3 1   
     6     2     4 2   
     7     3    22 1   
     8     3    23 1   
     9     3    24 1   
    10     4     5 1   
    11     4    25 1   
    12     5     6 1   
    13     5    26 1   
    14     5    27 1   
    15     6     7 1   
    16     7     8 2   
    17     7     9 1   
    18     9    10 2   
    19     9    28 1   
    20    10    11 1   
    21    10    29 1   
    22    11    12 ar  
    23    11    18 ar  
    24    12    13 ar  
    25    12    30 1   
    26    13    14 1   
    27    13    15 ar  
    28    14    31 1   
    29    15    16 1   
    30    15    17 ar  
    31    16    32 1   
    32    17    18 ar  
    33    17    33 1   
    34    18    34 1   
@<TRIPOS>SUBSTRUCTURE
     1 PWH         1 TEMP              0 ****  ****    0 ROOT
