@<TRIPOS>MOLECULE
PWI
   39    40     1     0     0
SMALL
abcg2


@<TRIPOS>ATOM
      1 C01        176.7830   178.5610   159.0970 cp         1 PWI      -0.037000
      2 C02        176.9680   177.3400   158.4430 ca         1 PWI      -0.092500
      3 C03        176.4520   177.1200   157.1720 ca         1 PWI      -0.102500
      4 C04        175.7420   178.1360   156.5480 ca         1 PWI       0.125000
      5 C05        175.5440   179.3620   157.1680 ca         1 PWI      -0.102500
      6 C06        176.0690   179.5660   158.4370 ca         1 PWI      -0.092500
      7 C07        177.3530   178.8170   160.4420 cp         1 PWI      -0.036000
      8 C08        177.1030   177.9790   161.5430 ca         1 PWI      -0.062300
      9 C09        177.6800   178.2750   162.7760 ca         1 PWI      -0.077000
     10 C10        178.4860   179.3930   162.9160 ca         1 PWI       0.125000
     11 C11        178.7360   180.2420   161.8490 ca         1 PWI      -0.100000
     12 C12        178.1630   179.9420   160.6230 ca         1 PWI      -0.095000
     13 C13        176.2050   176.7730   161.4260 c3         1 PWI       0.201900
     14 C14        174.8460   175.2880   162.6430 c3         1 PWI       0.251700
     15 C15        174.2750   175.0220   163.9540 c1         1 PWI      -0.136100
     16 C16        173.8000   174.7950   165.0360 c1         1 PWI      -0.106100
     17 C17        173.2170   174.5030   166.3410 c3         1 PWI       0.237900
     18 C18        173.5630   173.5180   168.5240 c3         1 PWI       0.140100
     19 N01        174.1770   173.8570   167.2420 n7         1 PWI      -0.849400
     20 O01        175.6260   176.4810   162.6900 os         1 PWI      -0.453000
     21 CL1        175.0850   177.8660   154.9470 cl         1 PWI      -0.209000
     22 CL2        179.2000   179.7410   164.4790 cl         1 PWI      -0.208000
     23 H1         177.5380   176.5540   158.9180 ha         1 PWI       0.122000
     24 H2         176.6070   176.1740   156.6730 ha         1 PWI       0.131500
     25 H3         174.9870   180.1430   156.6700 ha         1 PWI       0.131500
     26 H4         175.9100   180.5180   158.9270 ha         1 PWI       0.122000
     27 H5         177.4820   177.6380   163.6260 ha         1 PWI       0.151000
     28 H6         179.3650   181.1130   161.9700 ha         1 PWI       0.132000
     29 H7         178.3580   180.5900   159.7780 ha         1 PWI       0.121000
     30 H8         175.4170   176.9580   160.6880 h1         1 PWI       0.037700
     31 H9         176.7770   175.9030   161.0780 h1         1 PWI       0.037700
     32 H10        174.0440   175.3940   161.9000 h1         1 PWI       0.041200
     33 H11        175.4740   174.4440   162.3270 h1         1 PWI       0.041200
     34 H12        172.8890   175.4380   166.8060 h1         1 PWI       0.049700
     35 H13        174.2830   172.9750   169.1360 h1         1 PWI       0.033033
     36 H14        173.2890   174.4340   169.0510 h1         1 PWI       0.033033
     37 H15        172.6560   172.9030   168.4230 h1         1 PWI       0.033033
     38 H16        174.5130   173.0090   166.7980 hn         1 PWI       0.410000
     39 H17        172.3080   173.8970   166.1940 h1         1 PWI       0.049700
@<TRIPOS>BOND
     1     1     2 ar  
     2     1     6 ar  
     3     1     7 1   
     4     2     3 ar  
     5     2    23 1   
     6     3     4 ar  
     7     3    24 1   
     8     4     5 ar  
     9     4    21 1   
    10     5     6 ar  
    11     5    25 1   
    12     6    26 1   
    13     7     8 ar  
    14     7    12 ar  
    15     8     9 ar  
    16     8    13 1   
    17     9    10 ar  
    18     9    27 1   
    19    10    11 ar  
    20    10    22 1   
    21    11    12 ar  
    22    11    28 1   
    23    12    29 1   
    24    13    20 1   
    25    13    30 1   
    26    13    31 1   
    27    14    15 1   
    28    14    20 1   
    29    14    32 1   
    30    14    33 1   
    31    15    16 3   
    32    16    17 1   
    33    17    19 1   
    34    17    34 1   
    35    17    39 1   
    36    18    19 1   
    37    18    35 1   
    38    18    36 1   
    39    18    37 1   
    40    19    38 1   
@<TRIPOS>SUBSTRUCTURE
     1 PWI         1 TEMP              0 ****  ****    0 ROOT
