@<TRIPOS>MOLECULE
PWI
   39    40     1     0     0
SMALL
No Charge or Current Charge


@<TRIPOS>ATOM
      1 C01        176.6740   178.5620   159.0940 cp         1 PWI      -0.037000
      2 C02        177.0640   177.4010   158.3810 ca         1 PWI      -0.092500
      3 C03        176.4520   177.0640   157.1610 ca         1 PWI      -0.102500
      4 C04        175.4460   177.8870   156.6310 ca         1 PWI       0.125000
      5 C05        175.0530   179.0480   157.3150 ca         1 PWI      -0.102500
      6 C06        175.6660   179.3850   158.5350 ca         1 PWI      -0.092500
      7 C07        177.3280   178.9340   160.3840 cp         1 PWI      -0.036000
      8 C08        177.3680   178.0520   161.5060 ca         1 PWI      -0.062300
      9 C09        178.0400   178.4560   162.6820 ca         1 PWI      -0.077000
     10 C10        178.6430   179.7200   162.7670 ca         1 PWI       0.125000
     11 C11        178.5870   180.6010   161.6790 ca         1 PWI      -0.100000
     12 C12        177.9340   180.2090   160.5000 ca         1 PWI      -0.095000
     13 C13        176.6940   176.6770   161.4800 c3         1 PWI       0.201900
     14 C14        175.4180   175.1410   162.8410 c3         1 PWI       0.251700
     15 C15        174.8640   174.9980   164.1920 c1         1 PWI      -0.136100
     16 C16        174.4260   174.8590   165.3120 c1         1 PWI      -0.106100
     17 C17        173.9150   174.7200   166.6800 c3         1 PWI       0.237900
     18 C18        172.6410   173.1890   168.1740 c3         1 PWI       0.140100
     19 N01        173.2190   173.4290   166.8380 n7         1 PWI      -0.849400
     20 O01        176.0840   176.4110   162.7550 os         1 PWI      -0.453000
     21 Cl1        174.6810   177.4660   155.1040 cl         1 PWI      -0.209000
     22 Cl2        179.4670   180.2030   164.2440 cl         1 PWI      -0.208000
     23 H1         177.8520   176.7640   158.7760 ha         1 PWI       0.122000
     24 H2         176.7590   176.1690   156.6260 ha         1 PWI       0.131500
     25 H3         174.2770   179.6860   156.9010 ha         1 PWI       0.131500
     26 H4         175.3540   180.2850   159.0590 ha         1 PWI       0.122000
     27 H5         178.0910   177.7910   163.5400 ha         1 PWI       0.151000
     28 H6         179.0520   181.5810   161.7470 ha         1 PWI       0.132000
     29 H7         177.9090   180.8940   159.6550 ha         1 PWI       0.121000
     30 H8         175.9290   176.6470   160.6940 h1         1 PWI       0.037700
     31 H9         177.4490   175.9140   161.2470 h1         1 PWI       0.037700
     32 H10        174.6020   175.0770   162.1100 h1         1 PWI       0.041200
     33 H11        176.1190   174.3180   162.6530 h1         1 PWI       0.041200
     34 H12        174.7590   174.7960   167.3790 h1         1 PWI       0.049700
     35 H13        172.1440   172.2100   168.2100 h1         1 PWI       0.033033
     36 H14        173.4210   173.2020   168.9470 h1         1 PWI       0.033033
     37 H15        171.8960   173.9570   168.4250 h1         1 PWI       0.033033
     38 H16        172.4580   173.4030   166.1470 hn         1 PWI       0.410000
     39 H17        173.2350   175.5590   166.8850 h1         1 PWI       0.049700
@<TRIPOS>BOND
     1     1     2 ar  
     2     1     6 ar  
     3     1     7 1   
     4     2     3 ar  
     5     2    23 1   
     6     3     4 ar  
     7     3    24 1   
     8     4     5 ar  
     9     4    21 1   
    10     5     6 ar  
    11     5    25 1   
    12     6    26 1   
    13     7     8 ar  
    14     7    12 ar  
    15     8     9 ar  
    16     8    13 1   
    17     9    10 ar  
    18     9    27 1   
    19    10    11 ar  
    20    10    22 1   
    21    11    12 ar  
    22    11    28 1   
    23    12    29 1   
    24    13    20 1   
    25    13    30 1   
    26    13    31 1   
    27    14    15 1   
    28    14    20 1   
    29    14    32 1   
    30    14    33 1   
    31    15    16 3   
    32    16    17 1   
    33    17    19 1   
    34    17    34 1   
    35    17    39 1   
    36    18    19 1   
    37    18    35 1   
    38    18    36 1   
    39    18    37 1   
    40    19    38 1   
@<TRIPOS>SUBSTRUCTURE
     1 PWI         1 TEMP              0 ****  ****    0 ROOT
