@<TRIPOS>MOLECULE
PWK
   50    51     1     0     0
SMALL
abcg2


@<TRIPOS>ATOM
      1 CAA         -4.6120     2.5060    -1.6820 c3         1 PWK       0.151900
      2 OAO         -5.3460     1.3490    -1.3400 os         1 PWK      -0.344600
      3 CAU         -4.6890     0.3050    -0.7850 ca         1 PWK       0.080600
      4 CAK         -3.3210     0.2400    -0.5740 ca         1 PWK      -0.159500
      5 CAS         -5.5080    -0.7750    -0.4160 ca         1 PWK       0.112100
      6 OAE         -6.8450    -0.7420    -0.6090 oh         1 PWK      -0.525600
      7 CAI         -4.9300    -1.8940     0.1520 ca         1 PWK      -0.149000
      8 CAG         -3.5530    -1.9500     0.3580 ca         1 PWK      -0.103500
      9 CAQ         -2.7340    -0.8900     0.0040 ca         1 PWK      -0.076800
     10 CAM         -1.2490    -0.9250     0.2360 c3         1 PWK      -0.028600
     11 CAW         -0.7740     0.0010     1.3710 c3         1 PWK      -0.054200
     12 CAC         -1.3400    -0.4870     2.7020 c3         1 PWK      -0.087100
     13 CAX          0.7650     0.1040     1.3840 c3         1 PWK      -0.054200
     14 CAD          1.3120     0.6730     2.6900 c3         1 PWK      -0.087100
     15 CAN          1.2770     0.9460     0.2020 c3         1 PWK      -0.028600
     16 CAR          2.7600     0.8310    -0.0190 ca         1 PWK      -0.076800
     17 CAL          3.2930    -0.3690    -0.5050 ca         1 PWK      -0.159500
     18 CAH          3.6280     1.8730     0.2560 ca         1 PWK      -0.103500
     19 CAJ          5.0000     1.7290     0.0560 ca         1 PWK      -0.149000
     20 CAT          5.5240     0.5430    -0.4210 ca         1 PWK       0.112100
     21 OAF          6.8420     0.3360    -0.6380 oh         1 PWK      -0.525600
     22 CAV          4.6540    -0.5250    -0.7080 ca         1 PWK       0.080600
     23 OAP          5.2440    -1.6440    -1.1750 os         1 PWK      -0.344600
     24 CAB          4.4280    -2.7640    -1.4450 c3         1 PWK       0.151900
     25 H1          -4.1170     2.9440    -0.8120 h1         1 PWK       0.040033
     26 H2          -3.8610     2.2990    -2.4490 h1         1 PWK       0.040033
     27 H3          -5.3280     3.2220    -2.0790 h1         1 PWK       0.040033
     28 H4          -2.6880     1.0690    -0.8660 ha         1 PWK       0.116500
     29 H5          -7.1060     0.1120    -0.9740 ho         1 PWK       0.468500
     30 H6          -5.5600    -2.7270     0.4380 ha         1 PWK       0.122000
     31 H7          -3.1220    -2.8370     0.8050 ha         1 PWK       0.114000
     32 H8          -0.9420    -1.9490     0.4730 hc         1 PWK       0.045450
     33 H9          -0.7450    -0.6620    -0.6970 hc         1 PWK       0.045450
     34 H10         -1.1740     1.0060     1.1820 hc         1 PWK       0.046200
     35 H11         -2.4170    -0.6460     2.6350 hc         1 PWK       0.035533
     36 H12         -0.8840    -1.4360     2.9950 hc         1 PWK       0.035533
     37 H13         -1.1670     0.2280     3.5050 hc         1 PWK       0.035533
     38 H14          1.1590    -0.9150     1.2710 hc         1 PWK       0.046200
     39 H15          1.1310     0.0060     3.5330 hc         1 PWK       0.035533
     40 H16          2.3900     0.8280     2.6250 hc         1 PWK       0.035533
     41 H17          0.8530     1.6370     2.9230 hc         1 PWK       0.035533
     42 H18          0.7660     0.6510    -0.7180 hc         1 PWK       0.045450
     43 H19          1.0120     1.9930     0.3770 hc         1 PWK       0.045450
     44 H20          2.6140    -1.1840    -0.7250 ha         1 PWK       0.116500
     45 H21          3.2440     2.8120     0.6350 ha         1 PWK       0.114000
     46 H22          5.6650     2.5570     0.2780 ha         1 PWK       0.122000
     47 H23          7.3390     1.1230    -0.3920 ho         1 PWK       0.468500
     48 H24          3.9030    -3.1120    -0.5510 h1         1 PWK       0.040033
     49 H25          3.6900    -2.5560    -2.2240 h1         1 PWK       0.040033
     50 H26          5.0900    -3.5540    -1.7920 h1         1 PWK       0.040033
@<TRIPOS>BOND
     1     1     2 1   
     2     1    25 1   
     3     1    26 1   
     4     1    27 1   
     5     2     3 1   
     6     3     4 ar  
     7     3     5 ar  
     8     4     9 ar  
     9     4    28 1   
    10     5     6 1   
    11     5     7 ar  
    12     6    29 1   
    13     7     8 ar  
    14     7    30 1   
    15     8     9 ar  
    16     8    31 1   
    17     9    10 1   
    18    10    11 1   
    19    10    32 1   
    20    10    33 1   
    21    11    12 1   
    22    11    13 1   
    23    11    34 1   
    24    12    35 1   
    25    12    36 1   
    26    12    37 1   
    27    13    14 1   
    28    13    15 1   
    29    13    38 1   
    30    14    39 1   
    31    14    40 1   
    32    14    41 1   
    33    15    16 1   
    34    15    42 1   
    35    15    43 1   
    36    16    17 ar  
    37    16    18 ar  
    38    17    22 ar  
    39    17    44 1   
    40    18    19 ar  
    41    18    45 1   
    42    19    20 ar  
    43    19    46 1   
    44    20    21 1   
    45    20    22 ar  
    46    21    47 1   
    47    22    23 1   
    48    23    24 1   
    49    24    48 1   
    50    24    49 1   
    51    24    50 1   
@<TRIPOS>SUBSTRUCTURE
     1 PWK         1 TEMP              0 ****  ****    0 ROOT
