@<TRIPOS>MOLECULE
PWK
   50    51     1     0     0
SMALL
No Charge or Current Charge


@<TRIPOS>ATOM
      1 CAA         -5.1880     2.9230    -0.7560 c3         1 PWK       0.151900
      2 OAO         -5.8040     1.6290    -0.6170 os         1 PWK      -0.344600
      3 CAU         -5.0610     0.4710    -0.4600 ca         1 PWK       0.080600
      4 CAK         -3.6480     0.4750    -0.4320 ca         1 PWK      -0.159500
      5 CAS         -5.7540    -0.7520    -0.3260 ca         1 PWK       0.112100
      6 OAE         -7.1190    -0.7680    -0.3520 oh         1 PWK      -0.525600
      7 CAI         -5.0470    -1.9530    -0.1660 ca         1 PWK      -0.149000
      8 CAG         -3.6420    -1.9430    -0.1370 ca         1 PWK      -0.103500
      9 CAQ         -2.9360    -0.7310    -0.2670 ca         1 PWK      -0.076800
     10 CAM         -1.4100    -0.7190    -0.2330 c3         1 PWK      -0.028600
     11 CAW         -0.7990    -0.0080     1.0170 c3         1 PWK      -0.054200
     12 CAC         -1.4020    -0.6030     2.3230 c3         1 PWK      -0.087100
     13 CAX          0.7770    -0.0210     1.0260 c3         1 PWK      -0.054200
     14 CAD          1.3650     0.6810     2.2850 c3         1 PWK      -0.087100
     15 CAN          1.4030     0.5860    -0.2710 c3         1 PWK      -0.028600
     16 CAR          2.9300     0.5940    -0.2890 ca         1 PWK      -0.076800
     17 CAL          3.6420    -0.6190    -0.3490 ca         1 PWK      -0.159500
     18 CAH          3.6340     1.8120    -0.2490 ca         1 PWK      -0.103500
     19 CAJ          5.0390     1.8200    -0.2620 ca         1 PWK      -0.149000
     20 CAT          5.7540     0.6110    -0.3180 ca         1 PWK       0.112100
     21 OAF          7.1240     0.6440    -0.3290 oh         1 PWK      -0.525600
     22 CAV          5.0570    -0.6220    -0.3620 ca         1 PWK       0.080600
     23 OAP          5.7840    -1.8010    -0.4170 os         1 PWK      -0.344600
     24 CAB          5.1560    -3.0960    -0.4570 c3         1 PWK       0.151900
     25 H1          -4.5840     3.1640     0.1280 h1         1 PWK       0.040033
     26 H2          -4.5440     2.9550    -1.6430 h1         1 PWK       0.040033
     27 H3          -5.9560     3.6990    -0.8650 h1         1 PWK       0.040033
     28 H4          -3.0900     1.4010    -0.5360 ha         1 PWK       0.116500
     29 H5          -7.4110     0.1630    -0.4710 ho         1 PWK       0.468500
     30 H6          -5.5860    -2.8910    -0.0620 ha         1 PWK       0.122000
     31 H7          -3.1020    -2.8790    -0.0100 ha         1 PWK       0.114000
     32 H8          -1.0190    -1.7430    -0.2850 hc         1 PWK       0.045450
     33 H9          -1.0730    -0.2190    -1.1470 hc         1 PWK       0.045450
     34 H10         -1.1140     1.0430     0.9740 hc         1 PWK       0.046200
     35 H11         -2.4970    -0.6170     2.2930 hc         1 PWK       0.035533
     36 H12         -1.0530    -1.6310     2.4790 hc         1 PWK       0.035533
     37 H13         -1.1320    -0.0060     3.2000 hc         1 PWK       0.035533
     38 H14          1.0920    -1.0710     1.0740 hc         1 PWK       0.046200
     39 H15          1.0850     0.1580     3.2060 hc         1 PWK       0.035533
     40 H16          2.4610     0.6930     2.2670 hc         1 PWK       0.035533
     41 H17          1.0160     1.7180     2.3530 hc         1 PWK       0.035533
     42 H18          1.0760     0.0120    -1.1440 hc         1 PWK       0.045450
     43 H19          1.0130     1.6020    -0.4120 hc         1 PWK       0.045450
     44 H20          3.0810    -1.5480    -0.3840 ha         1 PWK       0.116500
     45 H21          3.0940     2.7550    -0.2020 ha         1 PWK       0.114000
     46 H22          5.5660     2.7710    -0.2280 ha         1 PWK       0.122000
     47 H23          7.4160     1.5790    -0.2940 ho         1 PWK       0.468500
     48 H24          4.5410    -3.2590     0.4370 h1         1 PWK       0.040033
     49 H25          4.5190    -3.1930    -1.3460 h1         1 PWK       0.040033
     50 H26          5.9160    -3.8860    -0.4950 h1         1 PWK       0.040033
@<TRIPOS>BOND
     1     1     2 1   
     2     1    25 1   
     3     1    26 1   
     4     1    27 1   
     5     2     3 1   
     6     3     4 ar  
     7     3     5 ar  
     8     4     9 ar  
     9     4    28 1   
    10     5     6 1   
    11     5     7 ar  
    12     6    29 1   
    13     7     8 ar  
    14     7    30 1   
    15     8     9 ar  
    16     8    31 1   
    17     9    10 1   
    18    10    11 1   
    19    10    32 1   
    20    10    33 1   
    21    11    12 1   
    22    11    13 1   
    23    11    34 1   
    24    12    35 1   
    25    12    36 1   
    26    12    37 1   
    27    13    14 1   
    28    13    15 1   
    29    13    38 1   
    30    14    39 1   
    31    14    40 1   
    32    14    41 1   
    33    15    16 1   
    34    15    42 1   
    35    15    43 1   
    36    16    17 ar  
    37    16    18 ar  
    38    17    22 ar  
    39    17    44 1   
    40    18    19 ar  
    41    18    45 1   
    42    19    20 ar  
    43    19    46 1   
    44    20    21 1   
    45    20    22 ar  
    46    21    47 1   
    47    22    23 1   
    48    23    24 1   
    49    24    48 1   
    50    24    49 1   
    51    24    50 1   
@<TRIPOS>SUBSTRUCTURE
     1 PWK         1 TEMP              0 ****  ****    0 ROOT
