@<TRIPOS>MOLECULE
PWM
   17    18     1     0     0
SMALL
abcg2


@<TRIPOS>ATOM
      1 N1          -3.8260     0.1570     3.1760 ns         1 PWM      -0.435400
      2 C4          -3.8540     2.7860     2.6020 ca         1 PWM       0.205400
      3 C5          -4.5740     0.6660     2.1610 cc         1 PWM       0.511800
      4 C6          -3.0150     0.9150     4.0090 c          1 PWM       0.580600
      5 C7          -3.0330     2.3380     3.6700 ca         1 PWM      -0.242600
      6 N           -4.6240     1.9140     1.8500 nd         1 PWM      -0.629100
      7 C           -2.2800     3.3010     4.3580 ca         1 PWM       0.241000
      8 O           -2.3880     0.3780     4.9120 o          1 PWM      -0.515000
      9 C1          -2.3250     4.6390     4.0460 ca         1 PWM      -0.180000
     10 C2          -3.1480     5.0590     2.9980 ca         1 PWM      -0.047000
     11 C3          -3.8990     4.1500     2.2810 ca         1 PWM      -0.122000
     12 F           -1.4700     2.9180     5.3630 f          1 PWM      -0.155000
     13 H1          -3.8560    -0.8390     3.3580 hn         1 PWM       0.334500
     14 H2          -5.1530    -0.0610     1.6030 h5         1 PWM       0.050800
     15 H3          -1.7260     5.3380     4.6140 ha         1 PWM       0.139000
     16 H4          -3.1890     6.1110     2.7470 ha         1 PWM       0.123000
     17 H5          -4.5310     4.4650     1.4630 ha         1 PWM       0.139000
@<TRIPOS>BOND
     1     1     3 1   
     2     1     4 1   
     3     1    13 1   
     4     2     5 ar  
     5     2     6 1   
     6     2    11 ar  
     7     3     6 2   
     8     3    14 1   
     9     4     5 1   
    10     4     8 2   
    11     5     7 ar  
    12     7     9 ar  
    13     7    12 1   
    14     9    10 ar  
    15     9    15 1   
    16    10    11 ar  
    17    10    16 1   
    18    11    17 1   
@<TRIPOS>SUBSTRUCTURE
     1 PWM         1 TEMP              0 ****  ****    0 ROOT
