@<TRIPOS>MOLECULE
PWM
   17    18     1     0     0
SMALL
No Charge or Current Charge


@<TRIPOS>ATOM
      1 N1          -3.8230     0.1510     3.1800 ns         1 PWM      -0.435400
      2 C4          -3.8610     2.7840     2.5970 ca         1 PWM       0.205400
      3 C5          -4.5910     0.6450     2.1620 cc         1 PWM       0.511800
      4 C6          -3.0260     0.8940     3.9790 c          1 PWM       0.580600
      5 C7          -3.0440     2.3450     3.6610 ca         1 PWM      -0.242600
      6 N           -4.6600     1.9310     1.8170 nd         1 PWM      -0.629100
      7 C           -2.2770     3.2850     4.3850 ca         1 PWM       0.241000
      8 O           -2.3690     0.3770     4.8680 o          1 PWM      -0.515000
      9 C1          -2.3220     4.6470     4.0530 ca         1 PWM      -0.180000
     10 C2          -3.1320     5.0860     2.9970 ca         1 PWM      -0.047000
     11 C3          -3.8950     4.1530     2.2770 ca         1 PWM      -0.122000
     12 F           -1.4820     2.9070     5.4100 f          1 PWM      -0.155000
     13 H1          -3.8380    -0.8420     3.3640 hn         1 PWM       0.334500
     14 H2          -5.1520    -0.1270     1.6510 h5         1 PWM       0.050800
     15 H3          -1.7270     5.3600     4.6170 ha         1 PWM       0.139000
     16 H4          -3.1700     6.1410     2.7360 ha         1 PWM       0.123000
     17 H5          -4.5220     4.4970     1.4580 ha         1 PWM       0.139000
@<TRIPOS>BOND
     1     1     3 1   
     2     1     4 1   
     3     1    13 1   
     4     2     5 ar  
     5     2     6 1   
     6     2    11 ar  
     7     3     6 2   
     8     3    14 1   
     9     4     5 1   
    10     4     8 2   
    11     5     7 ar  
    12     7     9 ar  
    13     7    12 1   
    14     9    10 ar  
    15     9    15 1   
    16    10    11 ar  
    17    10    16 1   
    18    11    17 1   
@<TRIPOS>SUBSTRUCTURE
     1 PWM         1 TEMP              0 ****  ****    0 ROOT
