@<TRIPOS>MOLECULE
PWN
   29    29     1     0     0
SMALL
abcg2


@<TRIPOS>ATOM
      1 C14         22.3780    -4.0580     5.1400 c          1 PWN       0.571900
      2 C15         21.8950    -4.4390     6.5020 c3         1 PWN      -0.193400
      3 C16         21.9440    -5.9330     6.7920 c3         1 PWN      -0.154400
      4 C17         21.4930    -6.2130     8.2070 c          1 PWN       0.614100
      5 O3          22.8180    -4.8260     4.3220 o          1 PWN      -0.523100
      6 C18         19.0740    -8.3430     9.5400 ce         1 PWN       0.454800
      7 O4          21.9730    -5.6400     9.1670 o          1 PWN      -0.582100
      8 O5          16.8910   -11.8870    10.1240 o          1 PWN      -0.717000
      9 C19         18.4210    -8.6690    10.8150 ca         1 PWN      -0.124900
     10 C20         18.3930    -7.6900    11.8140 ca         1 PWN      -0.101000
     11 O6          18.7530   -11.0560     9.2220 o          1 PWN      -0.717000
     12 C21         17.7490    -7.9130    13.0180 ca         1 PWN      -0.151000
     13 C22         17.1000    -9.1210    13.2340 ca         1 PWN      -0.127000
     14 C23         17.1080   -10.0900    12.2430 ca         1 PWN      -0.099000
     15 C24         17.7720    -9.8950    11.0330 ca         1 PWN      -0.106600
     16 C25         17.8050   -11.0480    10.0300 c          1 PWN       0.711600
     17 N7          20.5240    -7.1580     8.3100 ns         1 PWN      -0.272900
     18 N8          20.0160    -7.4880     9.5160 n2         1 PWN      -0.481300
     19 H1          22.3100    -2.9770     4.9210 h4         1 PWN      -0.023800
     20 H2          22.4840    -3.8740     7.2300 hc         1 PWN       0.076200
     21 H3          20.8750    -4.0510     6.5960 hc         1 PWN       0.076200
     22 H4          21.3470    -6.4810     6.0620 hc         1 PWN       0.067700
     23 H5          22.9700    -6.2970     6.6950 hc         1 PWN       0.067700
     24 H6          18.7030    -8.8160     8.6330 h4         1 PWN       0.020800
     25 H8          18.8690    -6.7350    11.6310 ha         1 PWN       0.110000
     26 H9          17.7390    -7.1410    13.7760 ha         1 PWN       0.088000
     27 H10         16.5840    -9.3050    14.1680 ha         1 PWN       0.087000
     28 H11         16.5970   -11.0280    12.4110 ha         1 PWN       0.128000
     29 H12         20.1480    -7.5890     7.4720 hn         1 PWN       0.299500
@<TRIPOS>BOND
     1     1     2 1   
     2     1     5 2   
     3     1    19 1   
     4     2     3 1   
     5     2    20 1   
     6     2    21 1   
     7     3     4 1   
     8     3    22 1   
     9     3    23 1   
    10     4     7 2   
    11     4    17 1   
    12     6     9 1   
    13     6    18 2   
    14     6    24 1   
    15     8    16 1   
    16     9    10 ar  
    17     9    15 ar  
    18    10    12 ar  
    19    10    25 1   
    20    11    16 1   
    21    12    13 ar  
    22    12    26 1   
    23    13    14 ar  
    24    13    27 1   
    25    14    15 ar  
    26    14    28 1   
    27    15    16 1   
    28    17    18 1   
    29    17    29 1   
@<TRIPOS>SUBSTRUCTURE
     1 PWN         1 TEMP              0 ****  ****    0 ROOT
