@<TRIPOS>MOLECULE
PWN
   29    29     1     0     0
SMALL
No Charge or Current Charge


@<TRIPOS>ATOM
      1 C14         22.7000    -4.1720     5.1260 c          1 PWN       0.571900
      2 C15         22.3360    -4.6640     6.5310 c3         1 PWN      -0.193400
      3 C16         21.5410    -6.0020     6.4930 c3         1 PWN      -0.154400
      4 C17         21.1830    -6.5060     7.9010 c          1 PWN       0.614100
      5 O3          23.6740    -4.5820     4.5040 o          1 PWN      -0.523100
      6 C18         18.9580    -8.0340     9.6440 ce         1 PWN       0.454800
      7 O4          22.0240    -6.9950     8.6480 o          1 PWN      -0.582100
      8 O5          17.5420   -11.7070     9.7510 o          1 PWN      -0.717000
      9 C19         18.3350    -8.5070    10.9290 ca         1 PWN      -0.124900
     10 C20         18.0020    -7.5790    11.9460 ca         1 PWN      -0.101000
     11 O6          19.5880   -11.0320     9.7640 o          1 PWN      -0.717000
     12 C21         17.3980    -8.0020    13.1400 ca         1 PWN      -0.151000
     13 C22         17.1160    -9.3590    13.3410 ca         1 PWN      -0.127000
     14 C23         17.4470   -10.2950    12.3500 ca         1 PWN      -0.099000
     15 C24         18.0640    -9.8880    11.1460 ca         1 PWN      -0.106600
     16 C25         18.4240   -10.9490    10.1280 c          1 PWN       0.711600
     17 N7          19.8360    -6.3980     8.2410 ns         1 PWN      -0.272900
     18 N8          19.3070    -6.7920     9.4640 n2         1 PWN      -0.481300
     19 H1          22.0180    -3.4090     4.6910 h4         1 PWN      -0.023800
     20 H2          23.2570    -4.8080     7.1090 hc         1 PWN       0.076200
     21 H3          21.6970    -3.9090     7.0040 hc         1 PWN       0.076200
     22 H4          20.6260    -5.8490     5.9070 hc         1 PWN       0.067700
     23 H5          22.1650    -6.7620     6.0050 hc         1 PWN       0.067700
     24 H6          19.0300    -8.7490     8.8230 h4         1 PWN       0.020800
     25 H8          18.2010    -6.5170    11.8120 ha         1 PWN       0.110000
     26 H9          17.1450    -7.2750    13.9080 ha         1 PWN       0.088000
     27 H10         16.6460    -9.6880    14.2650 ha         1 PWN       0.087000
     28 H11         17.2340   -11.3490    12.5190 ha         1 PWN       0.128000
     29 H12         19.2390    -5.9810     7.5310 hn         1 PWN       0.299500
@<TRIPOS>BOND
     1     1     2 1   
     2     1     5 2   
     3     1    19 1   
     4     2     3 1   
     5     2    20 1   
     6     2    21 1   
     7     3     4 1   
     8     3    22 1   
     9     3    23 1   
    10     4     7 2   
    11     4    17 1   
    12     6     9 1   
    13     6    18 2   
    14     6    24 1   
    15     8    16 1   
    16     9    10 ar  
    17     9    15 ar  
    18    10    12 ar  
    19    10    25 1   
    20    11    16 1   
    21    12    13 ar  
    22    12    26 1   
    23    13    14 ar  
    24    13    27 1   
    25    14    15 ar  
    26    14    28 1   
    27    15    16 1   
    28    17    18 1   
    29    17    29 1   
@<TRIPOS>SUBSTRUCTURE
     1 PWN         1 TEMP              0 ****  ****    0 ROOT
