@<TRIPOS>MOLECULE
PWP
   17    18     1     0     0
SMALL
abcg2


@<TRIPOS>ATOM
      1 N1           2.5790     0.3280    -0.0010 ns         1 PWP      -0.431400
      2 C4           2.5620    -1.0310    -0.0000 cc         1 PWP       0.500800
      3 C5          -1.0200     0.9760     0.0010 ca         1 PWP      -0.087000
      4 C6           0.2170     0.3270     0.0000 ca         1 PWP      -0.178600
      5 C7           1.4500     1.1120    -0.0000 c          1 PWP       0.574600
      6 N            1.5000    -1.7460    -0.0000 nd         1 PWP      -0.616100
      7 C           -2.1560     0.2090     0.0020 ca         1 PWP       0.152000
      8 O            1.5110     2.3270    -0.0010 o          1 PWP      -0.527000
      9 C1          -2.1130    -1.1830     0.0020 ca         1 PWP      -0.117000
     10 C2          -0.8920    -1.8170     0.0010 ca         1 PWP      -0.076000
     11 C3           0.2980    -1.0740     0.0000 ca         1 PWP       0.163400
     12 F           -3.3540     0.8090     0.0030 f          1 PWP      -0.173000
     13 H1           3.4760     0.7960     0.0010 hn         1 PWP       0.333500
     14 H2           3.5370    -1.5020    -0.0000 h5         1 PWP       0.049800
     15 H3          -1.0780     2.0570     0.0010 ha         1 PWP       0.155000
     16 H4          -3.0320    -1.7540     0.0010 ha         1 PWP       0.137000
     17 H5          -0.8360    -2.8970     0.0000 ha         1 PWP       0.138000
@<TRIPOS>BOND
     1     1     2 1   
     2     1     5 1   
     3     1    13 1   
     4     2     6 2   
     5     2    14 1   
     6     3     4 ar  
     7     3     7 ar  
     8     3    15 1   
     9     4     5 1   
    10     4    11 ar  
    11     5     8 2   
    12     6    11 1   
    13     7     9 ar  
    14     7    12 1   
    15     9    10 ar  
    16     9    16 1   
    17    10    11 ar  
    18    10    17 1   
@<TRIPOS>SUBSTRUCTURE
     1 PWP         1 TEMP              0 ****  ****    0 ROOT
