@<TRIPOS>MOLECULE
PWP
   17    18     1     0     0
SMALL
No Charge or Current Charge


@<TRIPOS>ATOM
      1 N1           2.6030     0.3330    -0.0000 ns         1 PWP      -0.431400
      2 C4           2.6030    -1.0380    -0.0000 cc         1 PWP       0.500800
      3 C5          -1.0300     0.9750     0.0010 ca         1 PWP      -0.087000
      4 C6           0.2250     0.3250     0.0010 ca         1 PWP      -0.178600
      5 C7           1.4910     1.1020     0.0000 c          1 PWP       0.574600
      6 N            1.5090    -1.8030     0.0000 nd         1 PWP      -0.616100
      7 C           -2.2110     0.2180     0.0010 ca         1 PWP       0.152000
      8 O            1.5470     2.3220     0.0000 o          1 PWP      -0.527000
      9 C1          -2.1500    -1.1820     0.0010 ca         1 PWP      -0.117000
     10 C2          -0.8990    -1.8260     0.0010 ca         1 PWP      -0.076000
     11 C3           0.2990    -1.0850     0.0000 ca         1 PWP       0.163400
     12 F           -3.4100     0.8410     0.0020 f          1 PWP      -0.173000
     13 H1           3.4860     0.8220    -0.0010 hn         1 PWP       0.333500
     14 H2           3.6040    -1.4530    -0.0010 h5         1 PWP       0.049800
     15 H3          -1.0940     2.0610     0.0010 ha         1 PWP       0.155000
     16 H4          -3.0670    -1.7650     0.0020 ha         1 PWP       0.137000
     17 H5          -0.8570    -2.9130     0.0010 ha         1 PWP       0.138000
@<TRIPOS>BOND
     1     1     2 1   
     2     1     5 1   
     3     1    13 1   
     4     2     6 2   
     5     2    14 1   
     6     3     4 ar  
     7     3     7 ar  
     8     3    15 1   
     9     4     5 1   
    10     4    11 ar  
    11     5     8 2   
    12     6    11 1   
    13     7     9 ar  
    14     7    12 1   
    15     9    10 ar  
    16     9    16 1   
    17    10    11 ar  
    18    10    17 1   
@<TRIPOS>SUBSTRUCTURE
     1 PWP         1 TEMP              0 ****  ****    0 ROOT
