@<TRIPOS>MOLECULE
PWQ
   29    29     1     0     0
SMALL
abcg2


@<TRIPOS>ATOM
      1 O3          24.7270    -3.3810     4.9990 o          1 PWQ      -0.517100
      2 C15         23.1830    -3.2410     6.8340 c3         1 PWQ      -0.189400
      3 C17         22.0830    -5.4820     6.9420 c          1 PWQ       0.612100
      4 C18         20.3730    -8.2650     8.1620 ce         1 PWQ       0.421800
      5 C19         20.3120    -9.7210     8.0810 ca         1 PWQ      -0.187900
      6 C20         19.2940   -10.3910     8.7590 ca         1 PWQ      -0.106000
      7 C21         19.2010   -11.7740     8.7070 ca         1 PWQ      -0.100500
      8 C22         20.1240   -12.5260     7.9860 ca         1 PWQ      -0.108600
      9 C23         20.0340   -14.0490     7.9370 c          1 PWQ       0.711600
     10 C24         21.1430   -11.8500     7.3130 ca         1 PWQ      -0.100500
     11 C14         23.5890    -3.3990     5.3970 c          1 PWQ       0.598900
     12 C16         21.9090    -3.9990     7.1700 c3         1 PWQ      -0.161400
     13 C25         21.2380   -10.4710     7.3520 ca         1 PWQ      -0.106000
     14 N7          21.2280    -6.2610     7.6510 ns         1 PWQ      -0.279900
     15 N8          21.2350    -7.5990     7.5070 n2         1 PWQ      -0.447300
     16 O4          22.9090    -5.9230     6.1660 o          1 PWQ      -0.555100
     17 O5          20.9420   -14.6350     7.3170 o          1 PWQ      -0.715000
     18 O6          19.0630   -14.5670     8.5210 o          1 PWQ      -0.715000
     19 H1          24.0090    -3.5170     7.4900 hc         1 PWQ       0.068200
     20 H2          22.9970    -2.1720     6.9870 hc         1 PWQ       0.068200
     21 H3          19.6400    -7.7810     8.8140 h4         1 PWQ      -0.034200
     22 H5          18.5670    -9.8240     9.3290 ha         1 PWQ       0.097000
     23 H6          18.4010   -12.2760     9.2340 ha         1 PWQ       0.131000
     24 H7          21.8720   -12.4180     6.7510 ha         1 PWQ       0.131000
     25 H8          22.7430    -3.4620     4.6870 h4         1 PWQ      -0.017800
     26 H9          21.5970    -3.7890     8.1940 hc         1 PWQ       0.057700
     27 H10         21.0880    -3.6570     6.5290 hc         1 PWQ       0.057700
     28 H11         22.0370    -9.9700     6.8210 ha         1 PWQ       0.097000
     29 H12         20.5600    -5.8260     8.2790 hn         1 PWQ       0.288500
@<TRIPOS>BOND
     1     1    11 2   
     2     2    11 1   
     3     2    12 1   
     4     2    19 1   
     5     2    20 1   
     6     3    12 1   
     7     3    14 1   
     8     3    16 2   
     9     4     5 1   
    10     4    15 2   
    11     4    21 1   
    12     5     6 ar  
    13     5    13 ar  
    14     6     7 ar  
    15     6    22 1   
    16     7     8 ar  
    17     7    23 1   
    18     8     9 1   
    19     8    10 ar  
    20     9    17 1   
    21     9    18 1   
    22    10    13 ar  
    23    10    24 1   
    24    11    25 1   
    25    12    26 1   
    26    12    27 1   
    27    13    28 1   
    28    14    15 1   
    29    14    29 1   
@<TRIPOS>SUBSTRUCTURE
     1 PWQ         1 TEMP              0 ****  ****    0 ROOT
