@<TRIPOS>MOLECULE
PWQ
   29    29     1     0     0
SMALL
No Charge or Current Charge


@<TRIPOS>ATOM
      1 O3          23.6360    -4.0730     4.4630 o          1 PWQ      -0.517100
      2 C15         23.1020    -3.3350     6.7210 c3         1 PWQ      -0.189400
      3 C17         21.6380    -5.4540     6.9200 c          1 PWQ       0.612100
      4 C18         20.6270    -8.2520     8.0930 ce         1 PWQ       0.421800
      5 C19         20.4840    -9.7420     8.0640 ca         1 PWQ      -0.187900
      6 C20         19.2040   -10.3140     8.1980 ca         1 PWQ      -0.106000
      7 C21         19.0350   -11.7090     8.1760 ca         1 PWQ      -0.100500
      8 C22         20.1440   -12.5720     8.0190 ca         1 PWQ      -0.108600
      9 C23         19.9610   -14.0840     7.9960 c          1 PWQ       0.711600
     10 C24         21.4270   -11.9930     7.8850 ca         1 PWQ      -0.100500
     11 C14         23.1820    -3.1990     5.1940 c          1 PWQ       0.598900
     12 C16         21.7540    -3.9470     7.2090 c3         1 PWQ      -0.161400
     13 C25         21.5960   -10.5980     7.9070 ca         1 PWQ      -0.106000
     14 N7          21.8480    -6.2800     8.0220 ns         1 PWQ      -0.279900
     15 N8          21.7810    -7.6650     7.9800 n2         1 PWQ      -0.447300
     16 O4          21.3390    -5.8830     5.8110 o          1 PWQ      -0.555100
     17 O5          20.9500   -14.7920     7.8580 o          1 PWQ      -0.715000
     18 O6          18.8320   -14.5400     8.1150 o          1 PWQ      -0.715000
     19 H1          23.9390    -3.9410     7.0870 hc         1 PWQ       0.068200
     20 H2          23.1470    -2.3220     7.1390 hc         1 PWQ       0.068200
     21 H3          19.7090    -7.6730     8.2200 h4         1 PWQ      -0.034200
     22 H5          18.3320    -9.6740     8.3210 ha         1 PWQ       0.097000
     23 H6          18.0320   -12.1190     8.2830 ha         1 PWQ       0.131000
     24 H7          22.3040   -12.6260     7.7620 ha         1 PWQ       0.131000
     25 H8          22.7950    -2.2430     4.7750 h4         1 PWQ      -0.017800
     26 H9          21.6970    -3.7840     8.2920 hc         1 PWQ       0.057700
     27 H10         20.9270    -3.4210     6.7160 hc         1 PWQ       0.057700
     28 H11         22.5980   -10.1870     7.8010 ha         1 PWQ       0.097000
     29 H12         22.0760    -5.8020     8.8900 hn         1 PWQ       0.288500
@<TRIPOS>BOND
     1     1    11 2   
     2     2    11 1   
     3     2    12 1   
     4     2    19 1   
     5     2    20 1   
     6     3    12 1   
     7     3    14 1   
     8     3    16 2   
     9     4     5 1   
    10     4    15 2   
    11     4    21 1   
    12     5     6 ar  
    13     5    13 ar  
    14     6     7 ar  
    15     6    22 1   
    16     7     8 ar  
    17     7    23 1   
    18     8     9 1   
    19     8    10 ar  
    20     9    17 1   
    21     9    18 1   
    22    10    13 ar  
    23    10    24 1   
    24    11    25 1   
    25    12    26 1   
    26    12    27 1   
    27    13    28 1   
    28    14    15 1   
    29    14    29 1   
@<TRIPOS>SUBSTRUCTURE
     1 PWQ         1 TEMP              0 ****  ****    0 ROOT
