@<TRIPOS>MOLECULE
PWR
   40    43     1     0     0
SMALL
abcg2


@<TRIPOS>ATOM
      1 N1           7.1510     0.0420    21.3450 ns         1 PWR      -0.165000
      2 C4           8.5890     0.7430    24.2100 c6         1 PWR      -0.112400
      3 C5           9.4150     0.2780    25.3860 c6         1 PWR       0.161600
      4 C6          11.2510    -0.0380    23.9450 ca         1 PWR       0.152100
      5 C7          12.6290    -0.2140    23.8200 ca         1 PWR      -0.134000
      6 C8          13.1740    -0.7000    22.6480 ca         1 PWR      -0.062000
      7 C10         10.9640    -0.8470    21.7060 ca         1 PWR      -0.054000
      8 C13          4.2940     0.3590    21.7210 ca         1 PWR      -0.089000
      9 C15          2.1750     0.9280    20.7160 ca         1 PWR      -0.088000
     10 C17          4.1930     1.1340    19.4140 ca         1 PWR      -0.005000
     11 C9          12.3290    -1.0270    21.5960 ca         1 PWR       0.088000
     12 C11         10.4060    -0.3330    22.8740 ca         1 PWR      -0.146300
     13 O2          10.8050     0.4240    25.1300 os         1 PWR      -0.335100
     14 C3           8.9160    -0.1260    22.9890 c6         1 PWR      -0.084400
     15 C2           8.3460     0.5530    21.7530 c          1 PWR       0.607100
     16 O1           8.8890     1.4940    21.2150 o          1 PWR      -0.539100
     17 C1           6.3560     0.5500    20.3150 ca         1 PWR       0.004000
     18 C            6.9120     0.9060    19.1240 ca         1 PWR      -0.161300
     19 C12          4.9510     0.6670    20.5130 ca         1 PWR      -0.083000
     20 C18          4.8350     1.4930    18.2190 ca         1 PWR      -0.242000
     21 N            6.1530     1.3920    18.0820 na         1 PWR       0.488300
     22 O            6.7420     1.7140    17.0050 o          1 PWR      -0.504000
     23 C16          2.7900     1.2520    19.5380 ca         1 PWR      -0.096000
     24 C14          2.9330     0.4870    21.8170 ca         1 PWR      -0.106000
     25 H1           6.7640    -0.7200    21.8820 hn         1 PWR       0.161000
     26 H2           8.8070     1.7930    24.0030 hc         1 PWR       0.069200
     27 H3           7.5290     0.6690    24.4550 hc         1 PWR       0.069200
     28 H4           9.2080     0.8740    26.2730 h1         1 PWR       0.058700
     29 H5           9.1930    -0.7690    25.6200 h1         1 PWR       0.058700
     30 H6          13.2730     0.0310    24.6550 ha         1 PWR       0.134000
     31 H7          14.2430    -0.8340    22.5610 ha         1 PWR       0.133000
     32 H8          10.3220    -1.1090    20.8730 ha         1 PWR       0.127000
     33 H9           4.8570     0.0340    22.5850 ha         1 PWR       0.109000
     34 H10          1.1010     1.0190    20.8070 ha         1 PWR       0.121000
     35 H11          8.4390    -1.1030    23.1300 hc         1 PWR       0.062700
     36 H12          7.9640     0.8200    18.9040 h4         1 PWR       0.186000
     37 H13          4.2930     1.8670    17.3630 h4         1 PWR       0.170000
     38 H15          2.2140     1.6030    18.6910 ha         1 PWR       0.126000
     39 H16          2.4360     0.2510    22.7490 ha         1 PWR       0.119000
     40 CL          12.9950    -1.6620    20.1250 cl         1 PWR      -0.197000
@<TRIPOS>BOND
     1     1    15 1   
     2     1    17 1   
     3     1    25 1   
     4     2     3 1   
     5     2    14 1   
     6     2    26 1   
     7     2    27 1   
     8     3    13 1   
     9     3    28 1   
    10     3    29 1   
    11     4     5 ar  
    12     4    12 ar  
    13     4    13 1   
    14     5     6 ar  
    15     5    30 1   
    16     6    11 ar  
    17     6    31 1   
    18     7    11 ar  
    19     7    12 ar  
    20     7    32 1   
    21     8    19 ar  
    22     8    24 ar  
    23     8    33 1   
    24     9    23 ar  
    25     9    24 ar  
    26     9    34 1   
    27    10    19 ar  
    28    10    20 ar  
    29    10    23 ar  
    30    11    40 1   
    31    12    14 1   
    32    14    15 1   
    33    14    35 1   
    34    15    16 2   
    35    17    18 ar  
    36    17    19 ar  
    37    18    21 2   
    38    18    36 1   
    39    20    21 1   
    40    20    37 1   
    41    21    22 1   
    42    23    38 1   
    43    24    39 1   
@<TRIPOS>SUBSTRUCTURE
     1 PWR         1 TEMP              0 ****  ****    0 ROOT
