@<TRIPOS>MOLECULE
PWR
   40    43     1     0     0
SMALL
No Charge or Current Charge


@<TRIPOS>ATOM
      1 N1           7.1480     0.5850    21.4470 ns         1 PWR      -0.165000
      2 C4           8.7970     1.1030    24.2340 c6         1 PWR      -0.112400
      3 C5           9.5820     0.5900    25.4550 c6         1 PWR       0.161600
      4 C6          11.3720    -0.1460    23.9850 ca         1 PWR       0.152100
      5 C7          12.7010    -0.5860    23.8760 ca         1 PWR      -0.134000
      6 C8          13.1280    -1.2690    22.7240 ca         1 PWR      -0.062000
      7 C10         10.8930    -1.0640    21.7780 ca         1 PWR      -0.054000
      8 C13          4.3140     0.1360    21.5790 ca         1 PWR      -0.089000
      9 C15          2.1160     0.2780    20.5370 ca         1 PWR      -0.088000
     10 C17          4.0810     1.0850    19.3460 ca         1 PWR      -0.005000
     11 C9          12.2210    -1.5130    21.6810 ca         1 PWR       0.088000
     12 C11         10.4600    -0.3570    22.9220 ca         1 PWR      -0.146300
     13 O2          10.9860     0.4930    25.1440 os         1 PWR      -0.335100
     14 C3           9.0090     0.1590    23.0210 c6         1 PWR      -0.084400
     15 C2           8.4900     0.8240    21.7180 c          1 PWR       0.607100
     16 O1           9.2310     1.4640    20.9820 o          1 PWR      -0.539100
     17 C1           6.3090     0.9590    20.3580 ca         1 PWR       0.004000
     18 C            6.8300     1.5470    19.1830 ca         1 PWR      -0.161300
     19 C12          4.9100     0.7230    20.4360 ca         1 PWR      -0.083000
     20 C18          4.6450     1.6710    18.2020 ca         1 PWR      -0.242000
     21 N            6.0080     1.9020    18.1220 na         1 PWR       0.488300
     22 O            6.4900     2.4170    17.1060 o          1 PWR      -0.504000
     23 C16          2.6930     0.8620    19.3990 ca         1 PWR      -0.096000
     24 C14          2.9260    -0.0830    21.6250 ca         1 PWR      -0.106000
     25 H1           6.6780     0.0390    22.1560 hn         1 PWR       0.161000
     26 H2           9.1490     2.1160    23.9900 hc         1 PWR       0.069200
     27 H3           7.7290     1.1910    24.4780 hc         1 PWR       0.069200
     28 H4           9.4500     1.2680    26.3100 h1         1 PWR       0.058700
     29 H5           9.2130    -0.4040    25.7450 h1         1 PWR       0.058700
     30 H6          13.3970    -0.4080    24.6920 ha         1 PWR       0.134000
     31 H7          14.1560    -1.6150    22.6430 ha         1 PWR       0.133000
     32 H8          10.2070    -1.2610    20.9570 ha         1 PWR       0.127000
     33 H9           4.9070    -0.1550    22.4410 ha         1 PWR       0.109000
     34 H10          1.0420     0.1070    20.5770 ha         1 PWR       0.121000
     35 H11          8.3450    -0.6940    23.2220 hc         1 PWR       0.062700
     36 H12          7.8870     1.7410    19.0320 h4         1 PWR       0.186000
     37 H13          4.0460     1.9640    17.3430 h4         1 PWR       0.170000
     38 H15          2.0610     1.1410    18.5590 ha         1 PWR       0.126000
     39 H16          2.4780    -0.5350    22.5070 ha         1 PWR       0.119000
     40 Cl          12.7500    -2.3800    20.2450 cl         1 PWR      -0.197000
@<TRIPOS>BOND
     1     1    15 1   
     2     1    17 1   
     3     1    25 1   
     4     2     3 1   
     5     2    14 1   
     6     2    26 1   
     7     2    27 1   
     8     3    13 1   
     9     3    28 1   
    10     3    29 1   
    11     4     5 ar  
    12     4    12 ar  
    13     4    13 1   
    14     5     6 ar  
    15     5    30 1   
    16     6    11 ar  
    17     6    31 1   
    18     7    11 ar  
    19     7    12 ar  
    20     7    32 1   
    21     8    19 ar  
    22     8    24 ar  
    23     8    33 1   
    24     9    23 ar  
    25     9    24 ar  
    26     9    34 1   
    27    10    19 ar  
    28    10    20 ar  
    29    10    23 ar  
    30    11    40 1   
    31    12    14 1   
    32    14    15 1   
    33    14    35 1   
    34    15    16 2   
    35    17    18 ar  
    36    17    19 ar  
    37    18    21 2   
    38    18    36 1   
    39    20    21 1   
    40    20    37 1   
    41    21    22 1   
    42    23    38 1   
    43    24    39 1   
@<TRIPOS>SUBSTRUCTURE
     1 PWR         1 TEMP              0 ****  ****    0 ROOT
