@<TRIPOS>MOLECULE
PWS
   21    21     1     0     0
SMALL
No Charge or Current Charge


@<TRIPOS>ATOM
      1 N1          -0.0060    -0.6900     0.0080 nc         1 PWS      -0.655300
      2 C4          -2.4710    -0.2890     0.0050 c3         1 PWS       0.367200
      3 C5          -0.7040     1.5810     0.0020 cd         1 PWS      -0.309200
      4 C6           0.6640     2.0930     0.0010 c          1 PWS       0.560200
      5 N            1.6440     1.1000     0.0040 n          1 PWS      -0.299300
      6 C            1.6780    -3.0600     0.0150 c3         1 PWS       0.034900
      7 O            0.9100     3.2910    -0.0020 o          1 PWS      -0.522000
      8 C1           1.2400    -0.2270     0.0070 cd         1 PWS       0.524800
      9 C2           3.0820     1.4910     0.0040 c3         1 PWS       0.057300
     10 C3          -1.0330     0.2400     0.0050 cc         1 PWS       0.090400
     11 F           -2.7220    -1.0500     1.0970 f          1 PWS      -0.103333
     12 F1          -3.3900     0.7050     0.0020 f          1 PWS      -0.103333
     13 F2          -2.7210    -1.0570    -1.0820 f          1 PWS      -0.103333
     14 S            2.5520    -1.4280     0.0110 ss         1 PWS      -0.223200
     15 H1          -1.4590     2.3580    -0.0010 ha         1 PWS       0.233000
     16 H2           2.4150    -3.8730     0.0170 h1         1 PWS       0.080033
     17 H3           1.0480    -3.1440     0.9090 h1         1 PWS       0.080033
     18 H4           1.0490    -3.1480    -0.8800 h1         1 PWS       0.080033
     19 H5           3.2090     2.5800     0.0010 h1         1 PWS       0.069367
     20 H6           3.5750     1.0930     0.9000 h1         1 PWS       0.069367
     21 H7           3.5760     1.0880    -0.8900 h1         1 PWS       0.069367
@<TRIPOS>BOND
     1     1     8 2   
     2     1    10 1   
     3     2    10 1   
     4     2    11 1   
     5     2    12 1   
     6     2    13 1   
     7     3     4 1   
     8     3    10 2   
     9     3    15 1   
    10     4     5 1   
    11     4     7 2   
    12     5     8 1   
    13     5     9 1   
    14     6    14 1   
    15     6    16 1   
    16     6    17 1   
    17     6    18 1   
    18     8    14 1   
    19     9    19 1   
    20     9    20 1   
    21     9    21 1   
@<TRIPOS>SUBSTRUCTURE
     1 PWS         1 TEMP              0 ****  ****    0 ROOT
