@<TRIPOS>MOLECULE
PWS
   21    21     1     0     0
SMALL
bcc


@<TRIPOS>ATOM
      1 N1           0.0060    -0.6650     0.0070 nc         1 PWS      -0.655300
      2 C4          -2.3460    -0.2980     0.0030 c3         1 PWS       0.731100
      3 C5          -0.7230     1.6070     0.0060 cd         1 PWS      -0.259200
      4 C6           0.6380     2.0770     0.0070 c          1 PWS       0.702700
      5 N            1.6000     1.0550     0.0040 n          1 PWS      -0.366300
      6 C            1.6070    -2.9660     0.0150 c3         1 PWS      -0.013000
      7 O            0.9660     3.2490     0.0100 o          1 PWS      -0.597500
      8 C1           1.2340    -0.2540     0.0060 cd         1 PWS       0.524800
      9 C2           3.0110     1.4200     0.0010 c3         1 PWS       0.057300
     10 C3          -0.9560     0.2780     0.0050 cc         1 PWS       0.090400
     11 F           -2.5430    -1.0620     1.0800 f          1 PWS      -0.224633
     12 F1          -3.2880     0.6450    -0.0020 f          1 PWS      -0.224633
     13 F2          -2.5380    -1.0660    -1.0720 f          1 PWS      -0.224633
     14 S            2.5330    -1.4210     0.0100 ss         1 PWS      -0.175300
     15 H1          -1.5090     2.3480     0.0060 ha         1 PWS       0.183000
     16 H2           2.3600    -3.7510     0.0180 h1         1 PWS       0.080033
     17 H3           0.9910    -3.0470     0.9060 h1         1 PWS       0.080033
     18 H4           0.9920    -3.0540    -0.8760 h1         1 PWS       0.080033
     19 H5           3.0940     2.4990    -0.0180 h1         1 PWS       0.069367
     20 H6           3.5020     1.0450     0.8980 h1         1 PWS       0.069367
     21 H7           3.5050     1.0160    -0.8830 h1         1 PWS       0.069367
@<TRIPOS>BOND
     1     1     8 2   
     2     1    10 1   
     3     2    10 1   
     4     2    11 1   
     5     2    12 1   
     6     2    13 1   
     7     3     4 1   
     8     3    10 2   
     9     3    15 1   
    10     4     5 1   
    11     4     7 2   
    12     5     8 1   
    13     5     9 1   
    14     6    14 1   
    15     6    16 1   
    16     6    17 1   
    17     6    18 1   
    18     8    14 1   
    19     9    19 1   
    20     9    20 1   
    21     9    21 1   
@<TRIPOS>SUBSTRUCTURE
     1 PWS         1 TEMP              0 ****  ****    0 ROOT
