@<TRIPOS>MOLECULE
PWT
   34    34     1     0     0
SMALL
No Charge or Current Charge


@<TRIPOS>ATOM
      1 C14        -23.2350    -3.0700    -5.5020 c          1 PWT       0.577900
      2 C15        -22.3140    -3.2480    -6.7130 c3         1 PWT      -0.207400
      3 C16        -21.5440    -4.5880    -6.6510 c3         1 PWT      -0.058400
      4 C17        -20.5860    -4.7850    -7.8500 c3         1 PWT      -0.167400
      5 C18        -19.8420    -6.1260    -7.7660 c          1 PWT       0.615100
      6 C19        -20.6510    -9.5160    -8.7590 c3         1 PWT       0.187100
      7 C20        -19.9270   -10.8620    -8.8170 ca         1 PWT      -0.067300
      8 C21        -19.9260   -11.6800    -7.6670 ca         1 PWT      -0.112000
      9 C22        -19.3050   -12.9390    -7.6820 ca         1 PWT      -0.144000
     10 O3         -24.3610    -3.5540    -5.4390 o          1 PWT      -0.526100
     11 O4         -18.9250    -6.3160    -6.9760 o          1 PWT      -0.597100
     12 O5         -19.6480   -10.9960   -12.3000 o          1 PWT      -0.723000
     13 O6         -18.7280    -9.3810   -11.2090 o          1 PWT      -0.723000
     14 C23        -18.6800   -13.3970    -8.8500 ca         1 PWT      -0.134000
     15 C24        -18.6720   -12.5950   -10.0020 ca         1 PWT      -0.093000
     16 C25        -19.2860   -11.3220   -10.0010 ca         1 PWT      -0.119600
     17 C26        -19.2360   -10.4930   -11.2640 c          1 PWT       0.716600
     18 N7         -20.2670    -7.0900    -8.6780 ns         1 PWT      -0.386300
     19 N8         -19.6940    -8.4010    -8.8000 n7         1 PWT      -0.581400
     20 H1         -22.8200    -2.4670    -4.6650 h4         1 PWT      -0.020800
     21 H2         -21.5740    -2.4390    -6.7030 hc         1 PWT       0.064200
     22 H3         -22.9120    -3.2180    -7.6310 hc         1 PWT       0.064200
     23 H4         -22.2620    -5.4190    -6.6230 hc         1 PWT       0.056200
     24 H5         -20.9680    -4.6340    -5.7170 hc         1 PWT       0.056200
     25 H6         -19.8480    -3.9740    -7.8420 hc         1 PWT       0.052700
     26 H7         -21.1750    -4.7410    -8.7740 hc         1 PWT       0.052700
     27 H8         -21.2520    -9.4610    -7.8410 h1         1 PWT       0.030700
     28 H9         -21.3460    -9.4500    -9.6070 h1         1 PWT       0.030700
     29 H10        -20.4130   -11.3390    -6.7570 ha         1 PWT       0.093000
     30 H11        -19.3110   -13.5590    -6.7890 ha         1 PWT       0.086000
     31 H13        -18.2010   -14.3740    -8.8640 ha         1 PWT       0.087000
     32 H14        -18.1810   -12.9570   -10.9030 ha         1 PWT       0.120000
     33 H15        -21.0170    -6.7940    -9.3000 hn         1 PWT       0.294500
     34 H16        -19.1280    -8.5150    -9.6700 hn         1 PWT       0.475000
@<TRIPOS>BOND
     1     1     2 1   
     2     1    10 2   
     3     1    20 1   
     4     2     3 1   
     5     2    21 1   
     6     2    22 1   
     7     3     4 1   
     8     3    23 1   
     9     3    24 1   
    10     4     5 1   
    11     4    25 1   
    12     4    26 1   
    13     5    11 2   
    14     5    18 1   
    15     6     7 1   
    16     6    19 1   
    17     6    27 1   
    18     6    28 1   
    19     7     8 ar  
    20     7    16 ar  
    21     8     9 ar  
    22     8    29 1   
    23     9    14 ar  
    24     9    30 1   
    25    12    17 1   
    26    13    17 1   
    27    14    15 ar  
    28    14    31 1   
    29    15    16 ar  
    30    15    32 1   
    31    16    17 1   
    32    18    19 1   
    33    18    33 1   
    34    19    34 1   
@<TRIPOS>SUBSTRUCTURE
     1 PWT         1 TEMP              0 ****  ****    0 ROOT
