@<TRIPOS>MOLECULE
PWT
   34    34     1     0     0
SMALL
bcc


@<TRIPOS>ATOM
      1 C14        -23.1140    -2.9390    -5.5230 c          1 PWT       0.577900
      2 C15        -22.3520    -3.3290    -6.7510 c3         1 PWT      -0.207400
      3 C16        -21.6370    -4.6680    -6.5680 c3         1 PWT      -0.058400
      4 C17        -20.7720    -5.0000    -7.7780 c3         1 PWT      -0.167400
      5 C18        -20.0410    -6.3170    -7.6150 c          1 PWT       0.682100
      6 C19        -20.5330    -9.4250    -8.8330 c3         1 PWT       0.187100
      7 C20        -19.8650   -10.7760    -8.8800 ca         1 PWT      -0.067300
      8 C21        -19.8170   -11.5230    -7.7040 ca         1 PWT      -0.130000
      9 C22        -19.2270   -12.7770    -7.6620 ca         1 PWT      -0.162000
     10 O3         -24.2610    -2.5710    -5.5020 o          1 PWT      -0.526100
     11 O4         -19.4330    -6.5990    -6.5950 o          1 PWT      -0.597100
     12 O5         -19.4990   -11.2620   -12.4000 o          1 PWT      -0.828300
     13 O6         -19.0320    -9.3520   -11.3550 o          1 PWT      -0.828300
     14 C23        -18.6860   -13.3120    -8.8220 ca         1 PWT      -0.152000
     15 C24        -18.7480   -12.5880   -10.0030 ca         1 PWT      -0.111000
     16 C25        -19.3120   -11.3130   -10.0520 ca         1 PWT      -0.119600
     17 C26        -19.2890   -10.5760   -11.3870 c          1 PWT       0.927200
     18 N7         -20.1170    -7.1170    -8.6950 ns         1 PWT      -0.453300
     19 N8         -19.5290    -8.3690    -8.7250 n7         1 PWT      -0.526200
     20 H1         -22.5260    -3.0050    -4.5870 h4         1 PWT      -0.020800
     21 H2         -21.6010    -2.5470    -6.9180 hc         1 PWT       0.064200
     22 H3         -23.0140    -3.3420    -7.6170 hc         1 PWT       0.064200
     23 H4         -22.3750    -5.4590    -6.4130 hc         1 PWT       0.056200
     24 H5         -21.0170    -4.6330    -5.6700 hc         1 PWT       0.056200
     25 H6         -20.0190    -4.2170    -7.9120 hc         1 PWT       0.052700
     26 H7         -21.3820    -4.9970    -8.6840 hc         1 PWT       0.052700
     27 H8         -21.1730    -9.3770    -7.9500 h1         1 PWT       0.030700
     28 H9         -21.1840    -9.2880    -9.7060 h1         1 PWT       0.030700
     29 H10        -20.2570   -11.1130    -6.8020 ha         1 PWT       0.111000
     30 H11        -19.1970   -13.3330    -6.7340 ha         1 PWT       0.104000
     31 H13        -18.2260   -14.2920    -8.8100 ha         1 PWT       0.105000
     32 H14        -18.3390   -13.0170   -10.9090 ha         1 PWT       0.138000
     33 H15        -20.6930    -6.8350    -9.4790 hn         1 PWT       0.294500
     34 H16        -18.9690    -8.4350    -9.5730 hn         1 PWT       0.419800
@<TRIPOS>BOND
     1     1     2 1   
     2     1    10 2   
     3     1    20 1   
     4     2     3 1   
     5     2    21 1   
     6     2    22 1   
     7     3     4 1   
     8     3    23 1   
     9     3    24 1   
    10     4     5 1   
    11     4    25 1   
    12     4    26 1   
    13     5    11 2   
    14     5    18 1   
    15     6     7 1   
    16     6    19 1   
    17     6    27 1   
    18     6    28 1   
    19     7     8 ar  
    20     7    16 ar  
    21     8     9 ar  
    22     8    29 1   
    23     9    14 ar  
    24     9    30 1   
    25    12    17 1   
    26    13    17 1   
    27    14    15 ar  
    28    14    31 1   
    29    15    16 ar  
    30    15    32 1   
    31    16    17 1   
    32    18    19 1   
    33    18    33 1   
    34    19    34 1   
@<TRIPOS>SUBSTRUCTURE
     1 PWT         1 TEMP              0 ****  ****    0 ROOT
