@<TRIPOS>MOLECULE
PWU
   62    66     1     0     0
SMALL
No Charge or Current Charge


@<TRIPOS>ATOM
      1 O            3.1570     2.5350    -0.7370 o          1 PWU      -0.508000
      2 C11          3.8030     1.6110    -0.2600 c          1 PWU       0.664100
      3 O1           4.9960     1.7940     0.3950 os         1 PWU      -0.435100
      4 C12          5.6160     3.0930     0.3940 c3         1 PWU       0.199300
      5 C14          6.6690     3.0700     1.5160 c3         1 PWU      -0.110600
      6 C13          6.2460     3.3530    -0.9930 c3         1 PWU      -0.110600
      7 N1           3.2600     0.3210    -0.0230 n          1 PWU      -0.085600
      8 C5           3.9330    -0.8270     0.4450 cc         1 PWU       0.090400
      9 C7           5.3280    -1.1490     0.2340 cc         1 PWU      -0.158800
     10 C9           6.2800    -0.5090    -0.5810 cc         1 PWU       0.273900
     11 N3           7.4610    -1.0950    -0.5830 nd         1 PWU      -0.529800
     12 N2           7.2610    -2.1740     0.2670 na         1 PWU       0.131800
     13 C10          8.3500    -3.1180     0.5530 c3         1 PWU       0.072900
     14 C8           5.9540    -2.2410     0.7630 cd         1 PWU      -0.143000
     15 C6           3.0300    -1.7160     0.9900 cd         1 PWU      -0.189200
     16 C            1.7020    -1.1640     0.7610 ca         1 PWU      -0.192800
     17 C4           1.8580     0.0510     0.1260 ca         1 PWU      -0.001000
     18 C3           0.7150     0.7770    -0.2300 ca         1 PWU      -0.230000
     19 C2          -0.5330     0.2080     0.0850 ca         1 PWU       0.625900
     20 N           -0.6900    -0.9670     0.7210 nb         1 PWU      -0.740000
     21 C1           0.4240    -1.6620     1.0560 ca         1 PWU       0.425900
     22 N4          -1.6940     0.8890    -0.2080 nu         1 PWU      -0.940900
     23 C15         -3.0480     0.5480    -0.2490 ca         1 PWU       0.329000
     24 C20         -4.0020     1.5610    -0.0580 ca         1 PWU      -0.162000
     25 C19         -5.3770     1.2720    -0.1120 ca         1 PWU      -0.068000
     26 C18         -5.8230    -0.0400    -0.3670 ca         1 PWU      -0.049000
     27 C17         -4.8650    -1.0500    -0.5870 ca         1 PWU      -0.068000
     28 C16         -3.4910    -0.7570    -0.5290 ca         1 PWU      -0.162000
     29 C21         -7.2530    -0.3540    -0.4330 cc         1 PWU      -0.145000
     30 C23         -7.7770    -1.2440    -1.3380 cd         1 PWU       0.244900
     31 N6          -9.1510    -1.2910    -1.2060 nd         1 PWU      -0.674000
     32 C22         -9.4520    -0.4360    -0.2370 cc         1 PWU       0.404800
     33 C24        -10.8510    -0.1680     0.2440 c3         1 PWU      -0.121400
     34 N5          -8.3160     0.1670     0.2760 na         1 PWU      -0.159500
     35 C25         -8.2600     1.1170     1.4010 c3         1 PWU       0.055900
     36 H12          4.8840     3.8810     0.6220 h1         1 PWU       0.063700
     37 H141         7.4140     2.2860     1.3360 hc         1 PWU       0.052200
     38 H142         7.1890     4.0330     1.5760 hc         1 PWU       0.052200
     39 H143         6.1930     2.8800     2.4850 hc         1 PWU       0.052200
     40 H131         6.9870     2.5830    -1.2370 hc         1 PWU       0.052200
     41 H132         5.4860     3.3690    -1.7810 hc         1 PWU       0.052200
     42 H133         6.7540     4.3250    -1.0010 hc         1 PWU       0.052200
     43 H6           3.2590    -2.7040     1.3800 ha         1 PWU       0.209000
     44 H9           6.1400     0.3520    -1.2180 h4         1 PWU       0.041100
     45 H8           5.6100    -3.0250     1.4270 h4         1 PWU       0.158000
     46 H101         9.2210    -2.5690     0.9290 h1         1 PWU       0.057367
     47 H102         8.0240    -3.8420     1.3090 h1         1 PWU       0.057367
     48 H103         8.6220    -3.6500    -0.3660 h1         1 PWU       0.057367
     49 H1           0.2870    -2.6200     1.5580 h4         1 PWU       0.023100
     50 H3           0.7720     1.7350    -0.7340 ha         1 PWU       0.151000
     51 H4          -1.5190     1.8770    -0.3670 hn         1 PWU       0.496000
     52 H20         -3.6800     2.5800     0.1390 ha         1 PWU       0.129500
     53 H16         -2.7750    -1.5500    -0.7180 ha         1 PWU       0.129500
     54 H19         -6.0920     2.0780     0.0270 ha         1 PWU       0.114000
     55 H17         -5.1810    -2.0700    -0.7950 ha         1 PWU       0.114000
     56 H23         -7.2540    -1.8360    -2.0790 h4         1 PWU       0.038100
     57 H241       -10.9880    -0.5450     1.2640 hc         1 PWU       0.052033
     58 H242       -11.0620     0.9080     0.2440 hc         1 PWU       0.052033
     59 H243       -11.5910    -0.6560    -0.4000 hc         1 PWU       0.052033
     60 H251        -8.3650     2.1420     1.0230 h1         1 PWU       0.052033
     61 H252        -9.0720     0.9090     2.1090 h1         1 PWU       0.052033
     62 H253        -7.3030     1.0180     1.9270 h1         1 PWU       0.052033
@<TRIPOS>BOND
     1     1     2 2   
     2     2     3 1   
     3     2     7 1   
     4     3     4 1   
     5     4     5 1   
     6     4     6 1   
     7     4    36 1   
     8     5    37 1   
     9     5    38 1   
    10     5    39 1   
    11     6    40 1   
    12     6    41 1   
    13     6    42 1   
    14     7     8 1   
    15     7    17 1   
    16     8     9 1   
    17     8    15 2   
    18     9    10 1   
    19     9    14 2   
    20    10    11 2   
    21    10    44 1   
    22    11    12 1   
    23    12    13 1   
    24    12    14 1   
    25    13    46 1   
    26    13    47 1   
    27    13    48 1   
    28    14    45 1   
    29    15    16 1   
    30    15    43 1   
    31    16    17 ar  
    32    16    21 ar  
    33    17    18 ar  
    34    18    19 ar  
    35    18    50 1   
    36    19    20 ar  
    37    19    22 1   
    38    20    21 ar  
    39    21    49 1   
    40    22    23 1   
    41    22    51 1   
    42    23    24 ar  
    43    23    28 ar  
    44    24    25 ar  
    45    24    52 1   
    46    25    26 ar  
    47    25    54 1   
    48    26    27 ar  
    49    26    29 1   
    50    27    28 ar  
    51    27    55 1   
    52    28    53 1   
    53    29    30 2   
    54    29    34 1   
    55    30    31 1   
    56    30    56 1   
    57    31    32 2   
    58    32    33 1   
    59    32    34 1   
    60    33    57 1   
    61    33    58 1   
    62    33    59 1   
    63    34    35 1   
    64    35    60 1   
    65    35    61 1   
    66    35    62 1   
@<TRIPOS>SUBSTRUCTURE
     1 PWU         1 TEMP              0 ****  ****    0 ROOT
