@<TRIPOS>MOLECULE
PWU
   62    66     1     0     0
SMALL
abcg2


@<TRIPOS>ATOM
      1 O            2.8890     2.4610    -0.0760 o          1 PWU      -0.508000
      2 C11          3.5920     1.5040     0.1330 c          1 PWU       0.664100
      3 O1           4.8250     1.5300     0.5680 os         1 PWU      -0.435100
      4 C12          5.5080     2.7990     0.7210 c3         1 PWU       0.199300
      5 C14          6.6750     2.5190     1.6440 c3         1 PWU      -0.110600
      6 C13          5.9520     3.3290    -0.6290 c3         1 PWU      -0.110600
      7 N1           3.1440     0.1970    -0.0440 n          1 PWU      -0.085600
      8 C5           3.8950    -1.0040     0.0110 cc         1 PWU       0.090400
      9 C7           5.3460    -1.0830    -0.0140 cc         1 PWU      -0.158800
     10 C9           6.2670    -0.5240    -0.9210 cc         1 PWU       0.273900
     11 N3           7.4980    -0.9000    -0.6470 nd         1 PWU      -0.529800
     12 N2           7.4010    -1.6940     0.4160 na         1 PWU       0.131800
     13 C10          8.5890    -2.2480     1.0180 c3         1 PWU       0.072900
     14 C8           6.1330    -1.8340     0.8320 cd         1 PWU      -0.143000
     15 C6           3.0370    -2.0510     0.0060 cd         1 PWU      -0.189200
     16 C            1.7050    -1.5340    -0.0560 ca         1 PWU      -0.192800
     17 C4           1.7960    -0.1310    -0.1050 ca         1 PWU      -0.001000
     18 C3           0.6550     0.6430    -0.1770 ca         1 PWU      -0.230000
     19 C2          -0.5650    -0.0510    -0.2020 ca         1 PWU       0.625900
     20 N           -0.6620    -1.3790    -0.1590 nb         1 PWU      -0.740000
     21 C1           0.4440    -2.1030    -0.0870 ca         1 PWU       0.425900
     22 N4          -1.7130     0.7020    -0.2870 nu         1 PWU      -0.940900
     23 C15         -3.0510     0.3470    -0.2840 ca         1 PWU       0.329000
     24 C20         -3.9740     1.3800    -0.5070 ca         1 PWU      -0.162000
     25 C19         -5.3330     1.1420    -0.5050 ca         1 PWU      -0.068000
     26 C18         -5.8420    -0.1380    -0.2670 ca         1 PWU      -0.049000
     27 C17         -4.9200    -1.1600    -0.0490 ca         1 PWU      -0.068000
     28 C16         -3.5520    -0.9400    -0.0620 ca         1 PWU      -0.162000
     29 C21         -7.2710    -0.4360    -0.2920 cc         1 PWU      -0.145000
     30 C23         -7.9420    -1.4880    -0.8570 cd         1 PWU       0.244900
     31 N6          -9.2830    -1.3710    -0.6510 nd         1 PWU      -0.674000
     32 C22         -9.4450    -0.2650     0.0340 cc         1 PWU       0.404800
     33 C24        -10.7460     0.2810     0.4990 c3         1 PWU      -0.121400
     34 N5          -8.2550     0.3400     0.2800 na         1 PWU      -0.159500
     35 C25         -8.0750     1.5470     1.0540 c3         1 PWU       0.055900
     36 H12          4.8240     3.5060     1.1960 h1         1 PWU       0.063700
     37 H141         7.3640     1.8000     1.1990 hc         1 PWU       0.052200
     38 H142         7.2200     3.4450     1.8260 hc         1 PWU       0.052200
     39 H143         6.3410     2.1320     2.6060 hc         1 PWU       0.052200
     40 H131         6.6360     2.6330    -1.1170 hc         1 PWU       0.052200
     41 H132         5.1130     3.5220    -1.2960 hc         1 PWU       0.052200
     42 H133         6.4790     4.2720    -0.4870 hc         1 PWU       0.052200
     43 H6           3.3290    -3.0890    -0.0050 ha         1 PWU       0.209000
     44 H9           6.0670     0.1260    -1.7600 h4         1 PWU       0.041100
     45 H8           5.8730    -2.4340     1.6900 h4         1 PWU       0.158000
     46 H101         9.1670    -1.4720     1.5180 h1         1 PWU       0.057367
     47 H102         8.3000    -2.9980     1.7490 h1         1 PWU       0.057367
     48 H103         9.2070    -2.7180     0.2570 h1         1 PWU       0.057367
     49 H1           0.3180    -3.1800    -0.0520 h4         1 PWU       0.023100
     50 H3           0.6730     1.7200    -0.2210 ha         1 PWU       0.151000
     51 H4          -1.5530     1.6930    -0.3740 hn         1 PWU       0.496000
     52 H20         -3.6160     2.3850    -0.6980 ha         1 PWU       0.129500
     53 H16         -2.8780    -1.7630     0.1100 ha         1 PWU       0.129500
     54 H19         -6.0000     1.9680    -0.7120 ha         1 PWU       0.114000
     55 H17         -5.2770    -2.1630     0.1530 ha         1 PWU       0.114000
     56 H23         -7.5160    -2.3070    -1.4170 h4         1 PWU       0.038100
     57 H241       -10.7990     0.3480     1.5870 hc         1 PWU       0.052033
     58 H242       -10.9380     1.2790     0.1000 hc         1 PWU       0.052033
     59 H243       -11.5470    -0.3760     0.1660 hc         1 PWU       0.052033
     60 H251        -8.0970     2.4370     0.4250 h1         1 PWU       0.052033
     61 H252        -8.8650     1.6290     1.7960 h1         1 PWU       0.052033
     62 H253        -7.1240     1.5130     1.5800 h1         1 PWU       0.052033
@<TRIPOS>BOND
     1     1     2 2   
     2     2     3 1   
     3     2     7 1   
     4     3     4 1   
     5     4     5 1   
     6     4     6 1   
     7     4    36 1   
     8     5    37 1   
     9     5    38 1   
    10     5    39 1   
    11     6    40 1   
    12     6    41 1   
    13     6    42 1   
    14     7     8 1   
    15     7    17 1   
    16     8     9 1   
    17     8    15 2   
    18     9    10 1   
    19     9    14 2   
    20    10    11 2   
    21    10    44 1   
    22    11    12 1   
    23    12    13 1   
    24    12    14 1   
    25    13    46 1   
    26    13    47 1   
    27    13    48 1   
    28    14    45 1   
    29    15    16 1   
    30    15    43 1   
    31    16    17 ar  
    32    16    21 ar  
    33    17    18 ar  
    34    18    19 ar  
    35    18    50 1   
    36    19    20 ar  
    37    19    22 1   
    38    20    21 ar  
    39    21    49 1   
    40    22    23 1   
    41    22    51 1   
    42    23    24 ar  
    43    23    28 ar  
    44    24    25 ar  
    45    24    52 1   
    46    25    26 ar  
    47    25    54 1   
    48    26    27 ar  
    49    26    29 1   
    50    27    28 ar  
    51    27    55 1   
    52    28    53 1   
    53    29    30 2   
    54    29    34 1   
    55    30    31 1   
    56    30    56 1   
    57    31    32 2   
    58    32    33 1   
    59    32    34 1   
    60    33    57 1   
    61    33    58 1   
    62    33    59 1   
    63    34    35 1   
    64    35    60 1   
    65    35    61 1   
    66    35    62 1   
@<TRIPOS>SUBSTRUCTURE
     1 PWU         1 TEMP              0 ****  ****    0 ROOT
