@<TRIPOS>MOLECULE
PWV
   40    42     1     0     0
SMALL
abcg2


@<TRIPOS>ATOM
      1 O1          -0.4140    -2.7610    -0.0890 o          1 PWV      -0.552000
      2 C1          -1.2260    -1.8430    -0.1520 c          1 PWV       0.568200
      3 N1          -2.5030    -2.0080     0.3060 ns         1 PWV      -0.365100
      4 C2          -3.4900    -1.0600     0.2940 ca         1 PWV       0.103600
      5 C3          -4.7690    -1.3370     0.7830 ca         1 PWV      -0.158000
      6 C4          -5.7380    -0.3580     0.7600 ca         1 PWV      -0.047000
      7 C5          -5.4400     0.9060     0.2470 ca         1 PWV       0.081000
      8 CL1         -6.6740     2.1220     0.2280 cl         1 PWV      -0.190000
      9 C6          -4.1870     1.1950    -0.2400 ca         1 PWV      -0.041000
     10 C7          -3.1940     0.2080    -0.2210 ca         1 PWV      -0.129800
     11 C8          -1.8700     0.4370    -0.7130 cc         1 PWV      -0.070200
     12 C9          -0.9200    -0.5220    -0.6970 cd         1 PWV      -0.198400
     13 C10          0.4470    -0.2690    -1.2800 c3         1 PWV       0.295700
     14 C11          0.6460    -0.9860    -2.6180 c3         1 PWV      -0.118100
     15 N2           1.4820    -0.6010    -0.3250 nu         1 PWV      -0.800200
     16 C12          2.6800     0.0040    -0.2750 cc         1 PWV       0.123800
     17 C13          3.0620     1.1170    -0.9870 cd         1 PWV      -0.293000
     18 C14          4.3350     1.6680    -0.7840 cd         1 PWV      -0.141000
     19 C15          5.2050     1.0980     0.0950 cc         1 PWV       0.065900
     20 C16          6.4860     1.6670     0.2910 cg         1 PWV       0.290700
     21 N3           7.5200     2.1640     0.4220 n1         1 PWV      -0.445000
     22 N4           4.8480    -0.0390     0.8000 n          1 PWV      -0.247000
     23 C17          5.7690    -0.6870     1.7270 c3         1 PWV       0.080300
     24 C18          3.6270    -0.6280     0.6580 c          1 PWV       0.527200
     25 O2           3.3290    -1.6450     1.2790 o          1 PWV      -0.567000
     26 H1          -2.7260    -2.9210     0.6820 hn         1 PWV       0.333500
     27 H2          -5.0010    -2.3170     1.1790 ha         1 PWV       0.128000
     28 H3          -6.7270    -0.5740     1.1380 ha         1 PWV       0.135000
     29 H4          -3.9560     2.1760    -0.6360 ha         1 PWV       0.135000
     30 H5          -1.6370     1.4180    -1.1120 ha         1 PWV       0.191000
     31 H6           0.5030     0.8050    -1.4630 h1         1 PWV       0.056700
     32 H7          -0.1130    -0.6730    -3.3340 hc         1 PWV       0.051033
     33 H8           1.6230    -0.7410    -3.0340 hc         1 PWV       0.051033
     34 H9           0.5860    -2.0670    -2.4990 hc         1 PWV       0.051033
     35 H10          2.4020     1.5870    -1.7020 ha         1 PWV       0.190000
     36 H11          4.6380     2.5520    -1.3260 ha         1 PWV       0.200000
     37 H13          6.6960    -0.1270     1.7850 h1         1 PWV       0.058033
     38 H14          5.3320    -0.7320     2.7230 h1         1 PWV       0.058033
     39 H15          5.9940    -1.6970     1.3920 h1         1 PWV       0.058033
     40 H16          1.4200    -1.5040     0.1250 hn         1 PWV       0.533000
@<TRIPOS>BOND
     1     1     2 2   
     2     2     3 1   
     3     2    12 1   
     4     3     4 1   
     5     3    26 1   
     6     4     5 ar  
     7     4    10 ar  
     8     5     6 ar  
     9     5    27 1   
    10     6     7 ar  
    11     6    28 1   
    12     7     8 1   
    13     7     9 ar  
    14     9    10 ar  
    15     9    29 1   
    16    10    11 1   
    17    11    12 2   
    18    11    30 1   
    19    12    13 1   
    20    13    14 1   
    21    13    15 1   
    22    13    31 1   
    23    14    32 1   
    24    14    33 1   
    25    14    34 1   
    26    15    16 1   
    27    15    40 1   
    28    16    17 2   
    29    16    24 1   
    30    17    18 1   
    31    17    35 1   
    32    18    19 2   
    33    18    36 1   
    34    19    20 1   
    35    19    22 1   
    36    20    21 3   
    37    22    23 1   
    38    22    24 1   
    39    23    37 1   
    40    23    38 1   
    41    23    39 1   
    42    24    25 2   
@<TRIPOS>SUBSTRUCTURE
     1 PWV         1 TEMP              0 ****  ****    0 ROOT
