@<TRIPOS>MOLECULE
PWV
   40    42     1     0     0
SMALL
No Charge or Current Charge


@<TRIPOS>ATOM
      1 O1          -0.3750    -2.6680    -0.0550 o          1 PWV      -0.552000
      2 C1          -1.2120    -1.7820    -0.1520 c          1 PWV       0.568200
      3 N1          -2.4750    -1.9670     0.3410 ns         1 PWV      -0.365100
      4 C2          -3.5260    -1.0470     0.3250 ca         1 PWV       0.103600
      5 C3          -4.7790    -1.3670     0.8720 ca         1 PWV      -0.158000
      6 C4          -5.8160    -0.4170     0.8410 ca         1 PWV      -0.047000
      7 C5          -5.5910     0.8440     0.2640 ca         1 PWV       0.081000
      8 Cl1         -6.8870     2.0340     0.2240 cl         1 PWV      -0.190000
      9 C6          -4.3340     1.1590    -0.2820 ca         1 PWV      -0.041000
     10 C7          -3.2920     0.2100    -0.2530 ca         1 PWV      -0.129800
     11 C8          -1.9820     0.5290    -0.8220 cc         1 PWV      -0.070200
     12 C9          -0.9790    -0.4360    -0.7740 cd         1 PWV      -0.198400
     13 C10          0.3920    -0.1720    -1.3660 c3         1 PWV       0.295700
     14 C11          0.6440    -0.9510    -2.6710 c3         1 PWV      -0.118100
     15 N2           1.4240    -0.4870    -0.3780 nu         1 PWV      -0.800200
     16 C12          2.7090     0.0430    -0.2590 cc         1 PWV       0.123800
     17 C13          3.1390     1.1200    -1.0050 cd         1 PWV      -0.293000
     18 C14          4.4790     1.6080    -0.8300 cd         1 PWV      -0.141000
     19 C15          5.3340     1.0080     0.0780 cc         1 PWV       0.065900
     20 C16          6.6600     1.5380     0.2080 cg         1 PWV       0.290700
     21 N3           7.7470     1.9490     0.3280 n1         1 PWV      -0.445000
     22 N4           4.9220    -0.0910     0.8550 n          1 PWV      -0.247000
     23 C17          5.8620    -0.7200     1.8280 c3         1 PWV       0.080300
     24 C18          3.6170    -0.6360     0.7370 c          1 PWV       0.527200
     25 O2           3.2470    -1.6030     1.4020 o          1 PWV      -0.567000
     26 H1          -2.6540    -2.8660     0.7680 hn         1 PWV       0.333500
     27 H2          -4.9520    -2.3430     1.3180 ha         1 PWV       0.128000
     28 H3          -6.7900    -0.6560     1.2620 ha         1 PWV       0.135000
     29 H4          -4.1730     2.1380    -0.7270 ha         1 PWV       0.135000
     30 H5          -1.7890     1.4960    -1.2810 ha         1 PWV       0.191000
     31 H6           0.4390     0.8980    -1.6080 h1         1 PWV       0.056700
     32 H7          -0.1290    -0.7110    -3.4100 hc         1 PWV       0.051033
     33 H8           1.6170    -0.6810    -3.0980 hc         1 PWV       0.051033
     34 H9           0.6330    -2.0330    -2.5000 hc         1 PWV       0.051033
     35 H10          2.4870     1.6040    -1.7230 ha         1 PWV       0.190000
     36 H11          4.8230     2.4570    -1.4190 ha         1 PWV       0.200000
     37 H13          6.2140     0.0360     2.5420 h1         1 PWV       0.058033
     38 H14          5.3940    -1.5300     2.3990 h1         1 PWV       0.058033
     39 H15          6.7250    -1.1330     1.2910 h1         1 PWV       0.058033
     40 H16          1.2700    -1.3510     0.1560 hn         1 PWV       0.533000
@<TRIPOS>BOND
     1     1     2 2   
     2     2     3 1   
     3     2    12 1   
     4     3     4 1   
     5     3    26 1   
     6     4     5 ar  
     7     4    10 ar  
     8     5     6 ar  
     9     5    27 1   
    10     6     7 ar  
    11     6    28 1   
    12     7     8 1   
    13     7     9 ar  
    14     9    10 ar  
    15     9    29 1   
    16    10    11 1   
    17    11    12 2   
    18    11    30 1   
    19    12    13 1   
    20    13    14 1   
    21    13    15 1   
    22    13    31 1   
    23    14    32 1   
    24    14    33 1   
    25    14    34 1   
    26    15    16 1   
    27    15    40 1   
    28    16    17 2   
    29    16    24 1   
    30    17    18 1   
    31    17    35 1   
    32    18    19 2   
    33    18    36 1   
    34    19    20 1   
    35    19    22 1   
    36    20    21 3   
    37    22    23 1   
    38    22    24 1   
    39    23    37 1   
    40    23    38 1   
    41    23    39 1   
    42    24    25 2   
@<TRIPOS>SUBSTRUCTURE
     1 PWV         1 TEMP              0 ****  ****    0 ROOT
