@<TRIPOS>MOLECULE
PWW
   32    32     1     0     0
SMALL
bcc


@<TRIPOS>ATOM
      1 C14        -68.5880    -2.9220    -5.6100 c          1 PWW       0.571900
      2 C15        -67.7070    -3.0690    -6.8090 c3         1 PWW      -0.202400
      3 C16        -67.5450    -4.4900    -7.3220 c3         1 PWW      -0.063400
      4 C17        -66.6440    -4.5160    -8.5530 c3         1 PWW      -0.172400
      5 C18        -66.2380    -5.8670    -9.1010 c          1 PWW       0.688100
      6 C19        -67.6920    -9.0390    -9.0340 ce         1 PWW       0.416800
      7 C20        -67.4840   -10.4180    -9.4670 ca         1 PWW      -0.185900
      8 C21        -66.3900   -10.8040   -10.2450 ca         1 PWW      -0.124500
      9 C22        -66.2230   -12.1280   -10.6050 ca         1 PWW      -0.119000
     10 C23        -67.1310   -13.1090   -10.2050 ca         1 PWW      -0.110600
     11 C24        -66.9180   -14.5740   -10.5850 c          1 PWW       0.923200
     12 C25        -68.2270   -12.7170    -9.4410 ca         1 PWW      -0.119000
     13 C26        -68.4040   -11.3910    -9.0780 ca         1 PWW      -0.124500
     14 N7         -67.1080    -6.8850    -8.8550 ns         1 PWW      -0.350900
     15 N8         -66.8490    -8.1260    -9.3040 n2         1 PWW      -0.449300
     16 O3         -69.1540    -3.8280    -5.0510 o          1 PWW      -0.512100
     17 O4         -65.2160    -6.0210    -9.7400 o          1 PWW      -0.558100
     18 O5         -67.7720   -15.3830   -10.1740 o          1 PWW      -0.821300
     19 O6         -65.9050   -14.8260   -11.2630 o          1 PWW      -0.821300
     20 H1         -68.6930    -1.8830    -5.2490 h4         1 PWW      -0.020800
     21 H2         -66.7380    -2.6280    -6.5480 hc         1 PWW       0.063200
     22 H3         -68.1090    -2.4080    -7.5860 hc         1 PWW       0.063200
     23 H4         -68.5340    -4.8930    -7.5560 hc         1 PWW       0.056200
     24 H5         -67.1240    -5.1190    -6.5340 hc         1 PWW       0.056200
     25 H6         -65.7150    -3.9830    -8.3440 hc         1 PWW       0.065700
     26 H7         -67.1250    -3.9690    -9.3720 hc         1 PWW       0.065700
     27 H8         -68.6000    -8.8400    -8.4580 h4         1 PWW      -0.032200
     28 H10        -65.6690   -10.0620   -10.5640 ha         1 PWW       0.115500
     29 H11        -65.3690   -12.4110   -11.2070 ha         1 PWW       0.147500
     30 H12        -68.9480   -13.4590    -9.1250 ha         1 PWW       0.147500
     31 H13        -69.2620   -11.1070    -8.4780 ha         1 PWW       0.115500
     32 H9         -67.9560    -6.7140    -8.3260 hn         1 PWW       0.293500
@<TRIPOS>BOND
     1     1     2 1   
     2     1    16 2   
     3     1    20 1   
     4     2     3 1   
     5     2    21 1   
     6     2    22 1   
     7     3     4 1   
     8     3    23 1   
     9     3    24 1   
    10     4     5 1   
    11     4    25 1   
    12     4    26 1   
    13     5    14 1   
    14     5    17 2   
    15     6     7 1   
    16     6    15 2   
    17     6    27 1   
    18     7     8 ar  
    19     7    13 ar  
    20     8     9 ar  
    21     8    28 1   
    22     9    10 ar  
    23     9    29 1   
    24    10    11 1   
    25    10    12 ar  
    26    11    18 1   
    27    11    19 1   
    28    12    13 ar  
    29    12    30 1   
    30    13    31 1   
    31    14    15 1   
    32    14    32 1   
@<TRIPOS>SUBSTRUCTURE
     1 PWW         1 TEMP              0 ****  ****    0 ROOT
