@<TRIPOS>MOLECULE
PWW
   32    32     1     0     0
SMALL
No Charge or Current Charge


@<TRIPOS>ATOM
      1 C14        -68.5250    -2.7600    -5.3900 c          1 PWW       0.571900
      2 C15        -67.8400    -2.9270    -6.7500 c3         1 PWW      -0.202400
      3 C16        -67.4600    -4.4030    -7.0200 c3         1 PWW      -0.063400
      4 C17        -66.7450    -4.5980    -8.3790 c3         1 PWW      -0.172400
      5 C18        -66.3830    -6.0690    -8.6250 c          1 PWW       0.621100
      6 C19        -67.5260    -8.9820    -9.2690 ce         1 PWW       0.416800
      7 C20        -67.3790   -10.4270    -9.6310 ca         1 PWW      -0.185900
      8 C21        -66.6380   -10.8440   -10.7570 ca         1 PWW      -0.106500
      9 C22        -66.5200   -12.2100   -11.0700 ca         1 PWW      -0.101000
     10 C23        -67.1390   -13.1950   -10.2670 ca         1 PWW      -0.110600
     11 C24        -67.0120   -14.6750   -10.6050 c          1 PWW       0.712600
     12 C25        -67.8810   -12.7700    -9.1400 ca         1 PWW      -0.101000
     13 C26        -67.9980   -11.4040    -8.8280 ca         1 PWW      -0.106500
     14 N7         -67.1600    -6.7120    -9.5860 ns         1 PWW      -0.283900
     15 N8         -66.9830    -8.0330    -9.9730 n2         1 PWW      -0.449300
     16 O3         -69.7230    -2.9570    -5.2140 o          1 PWW      -0.512100
     17 O4         -65.4620    -6.6190    -8.0320 o          1 PWW      -0.558100
     18 O5         -67.5650   -15.4920    -9.8820 o          1 PWW      -0.716000
     19 O6         -66.3600   -14.9970   -11.5900 o          1 PWW      -0.716000
     20 H1         -67.8640    -2.4460    -4.5530 h4         1 PWW      -0.020800
     21 H2         -66.9130    -2.3410    -6.7420 hc         1 PWW       0.063200
     22 H3         -68.5140    -2.5770    -7.5410 hc         1 PWW       0.063200
     23 H4         -68.3670    -5.0210    -6.9980 hc         1 PWW       0.056200
     24 H5         -66.8090    -4.7640    -6.2130 hc         1 PWW       0.056200
     25 H6         -65.8190    -4.0100    -8.3720 hc         1 PWW       0.065700
     26 H7         -67.4060    -4.2360    -9.1760 hc         1 PWW       0.065700
     27 H8         -68.1200    -8.7560    -8.3800 h4         1 PWW      -0.032200
     28 H10        -66.1480   -10.1140   -11.3970 ha         1 PWW       0.097500
     29 H11        -65.9410   -12.5000   -11.9440 ha         1 PWW       0.129500
     30 H12        -68.3710   -13.5000    -8.4990 ha         1 PWW       0.129500
     31 H13        -68.5750   -11.1060    -7.9550 ha         1 PWW       0.097500
     32 H9         -67.8900    -6.1450   -10.0100 hn         1 PWW       0.293500
@<TRIPOS>BOND
     1     1     2 1   
     2     1    16 2   
     3     1    20 1   
     4     2     3 1   
     5     2    21 1   
     6     2    22 1   
     7     3     4 1   
     8     3    23 1   
     9     3    24 1   
    10     4     5 1   
    11     4    25 1   
    12     4    26 1   
    13     5    14 1   
    14     5    17 2   
    15     6     7 1   
    16     6    15 2   
    17     6    27 1   
    18     7     8 ar  
    19     7    13 ar  
    20     8     9 ar  
    21     8    28 1   
    22     9    10 ar  
    23     9    29 1   
    24    10    11 1   
    25    10    12 ar  
    26    11    18 1   
    27    11    19 1   
    28    12    13 ar  
    29    12    30 1   
    30    13    31 1   
    31    14    15 1   
    32    14    32 1   
@<TRIPOS>SUBSTRUCTURE
     1 PWW         1 TEMP              0 ****  ****    0 ROOT
