@<TRIPOS>MOLECULE
PWX
   20    21     1     0     0
SMALL
No Charge or Current Charge


@<TRIPOS>ATOM
      1 C1         -27.5200   -43.0280   -10.1480 ca         1 PWX      -0.071200
      2 N1         -27.9870   -41.7920    -9.7480 na         1 PWX      -0.209600
      3 C12        -28.5980   -43.8850   -10.1560 ca         1 PWX       0.109400
      4 C17        -26.0610   -44.8210   -10.8670 ca         1 PWX      -0.101000
      5 C16        -27.1670   -45.7000   -10.8810 ca         1 PWX      -0.119000
      6 C14        -27.2250   -40.5310    -9.7010 c3         1 PWX       0.068900
      7 C13        -26.2240   -43.4710   -10.4980 ca         1 PWX       0.128000
      8 C15        -28.4470   -45.2320   -10.5210 ca         1 PWX      -0.065000
      9 N          -29.7760   -43.2620    -9.7710 nc         1 PWX      -0.639100
     10 C          -29.3500   -42.0280    -9.5470 cd         1 PWX       0.629700
     11 N12        -30.2110   -41.0820    -9.1450 nv         1 PWX      -1.003200
     12 Cl         -24.8050   -42.4230   -10.4850 cl         1 PWX      -0.221000
     13 H1         -25.0750   -45.1890   -11.1400 ha         1 PWX       0.128000
     14 H2         -27.0310   -46.7410   -11.1660 ha         1 PWX       0.119000
     15 H3         -27.8880   -39.6910    -9.4610 h1         1 PWX       0.055033
     16 H4         -26.4450   -40.5990    -8.9330 h1         1 PWX       0.055033
     17 H5         -26.7630   -40.3430   -10.6780 h1         1 PWX       0.055033
     18 H6         -29.3040   -45.9000   -10.5260 ha         1 PWX       0.132000
     19 H7         -31.1110   -41.4180    -8.8250 hn         1 PWX       0.474000
     20 H8         -29.8340   -40.2770    -8.6600 hn         1 PWX       0.474000
@<TRIPOS>BOND
     1     1     2 1   
     2     1     3 ar  
     3     1     7 ar  
     4     2     6 1   
     5     2    10 1   
     6     3     8 ar  
     7     3     9 1   
     8     4     5 ar  
     9     4     7 ar  
    10     4    13 1   
    11     5     8 ar  
    12     5    14 1   
    13     6    15 1   
    14     6    16 1   
    15     6    17 1   
    16     7    12 1   
    17     8    18 1   
    18     9    10 2   
    19    10    11 1   
    20    11    19 1   
    21    11    20 1   
@<TRIPOS>SUBSTRUCTURE
     1 PWX         1 TEMP              0 ****  ****    0 ROOT
