@<TRIPOS>MOLECULE
PWX
   20    21     1     0     0
SMALL
abcg2


@<TRIPOS>ATOM
      1 C1         -27.4780   -43.0380   -10.1800 ca         1 PWX      -0.071200
      2 N1         -27.9880   -41.8100    -9.7760 na         1 PWX      -0.209600
      3 C12        -28.5850   -43.9260   -10.1640 ca         1 PWX       0.109400
      4 C17        -26.0710   -44.8380   -10.9020 ca         1 PWX      -0.101000
      5 C16        -27.1690   -45.7020   -10.8950 ca         1 PWX      -0.119000
      6 C14        -27.2950   -40.5330    -9.6800 c3         1 PWX       0.068900
      7 C13        -26.2190   -43.5030   -10.5400 ca         1 PWX       0.128000
      8 C15        -28.4330   -45.2610   -10.5250 ca         1 PWX      -0.065000
      9 N          -29.7180   -43.2550    -9.7410 nc         1 PWX      -0.639100
     10 C          -29.3250   -42.0160    -9.5190 cd         1 PWX       0.629700
     11 N12        -30.1510   -41.0000    -9.1390 nv         1 PWX      -1.003200
     12 CL         -24.7980   -42.4740   -10.5370 cl         1 PWX      -0.221000
     13 H1         -25.0920   -45.2000   -11.1830 ha         1 PWX       0.128000
     14 H2         -27.0210   -46.7360   -11.1800 ha         1 PWX       0.119000
     15 H3         -28.0290   -39.7310    -9.7030 h1         1 PWX       0.055033
     16 H4         -26.7150   -40.4670    -8.7590 h1         1 PWX       0.055033
     17 H5         -26.6330   -40.4110   -10.5320 h1         1 PWX       0.055033
     18 H6         -29.2820   -45.9320   -10.5110 ha         1 PWX       0.132000
     19 H7         -31.0590   -41.3090    -8.8270 hn         1 PWX       0.474000
     20 H8         -29.7600   -40.2700    -8.5640 hn         1 PWX       0.474000
@<TRIPOS>BOND
     1     1     2 1   
     2     1     3 ar  
     3     1     7 ar  
     4     2     6 1   
     5     2    10 1   
     6     3     8 ar  
     7     3     9 1   
     8     4     5 ar  
     9     4     7 ar  
    10     4    13 1   
    11     5     8 ar  
    12     5    14 1   
    13     6    15 1   
    14     6    16 1   
    15     6    17 1   
    16     7    12 1   
    17     8    18 1   
    18     9    10 2   
    19    10    11 1   
    20    11    19 1   
    21    11    20 1   
@<TRIPOS>SUBSTRUCTURE
     1 PWX         1 TEMP              0 ****  ****    0 ROOT
