@<TRIPOS>MOLECULE
PWY
   27    28     1     0     0
SMALL
No Charge or Current Charge


@<TRIPOS>ATOM
      1 C10          0.0820    -1.8590    -0.1240 ca         1 PWY      -0.138000
      2 C11          3.3470    -0.1380     0.9390 c3         1 PWY      -0.193100
      3 O1           4.5420    -0.7110    -1.0250 o          1 PWY      -0.725500
      4 C12          4.1090     0.2100    -0.3480 c          1 PWY       0.724000
      5 O2           4.1460     1.3810    -0.6960 o          1 PWY      -0.725500
      6 C8           1.8750    -0.3720     0.6120 ca         1 PWY       0.010700
      7 C9           1.4380    -1.6380     0.1750 ca         1 PWY      -0.051000
      8 C3          -0.8490    -0.8150     0.0110 ca         1 PWY      -0.016000
      9 C2          -2.2070    -1.0300    -0.2870 ca         1 PWY      -0.138000
     10 C7           0.9400     0.6730     0.7460 ca         1 PWY      -0.132000
     11 C4          -0.4190     0.4560     0.4470 ca         1 PWY      -0.051000
     12 C5          -1.3510     1.5020     0.5820 ca         1 PWY      -0.066000
     13 C6          -2.7080     1.2830     0.2830 ca         1 PWY      -0.196000
     14 C1          -3.1400     0.0120    -0.1530 ca         1 PWY       0.103100
     15 O           -4.4580    -0.2590    -0.4600 os         1 PWY      -0.355100
     16 C           -5.4900     0.7380    -0.3560 c3         1 PWY       0.158900
     17 H1          -0.2400    -2.8420    -0.4600 ha         1 PWY       0.097000
     18 H2           3.7330    -1.0720     1.3650 hc         1 PWY       0.033700
     19 H3           3.3950     0.7020     1.6430 hc         1 PWY       0.033700
     20 H5           2.1510    -2.4520     0.0660 ha         1 PWY       0.120000
     21 H6          -2.5430    -2.0080    -0.6230 ha         1 PWY       0.113000
     22 H7           1.2700     1.6540     1.0800 ha         1 PWY       0.104000
     23 H8          -1.0260     2.4840     0.9180 ha         1 PWY       0.103000
     24 H9          -3.4040     2.1090     0.3970 ha         1 PWY       0.099000
     25 H10         -5.5740     1.1060     0.6740 h1         1 PWY       0.029367
     26 H11         -5.2800     1.5870    -1.0190 h1         1 PWY       0.029367
     27 H12         -6.4600     0.3130    -0.6460 h1         1 PWY       0.029367
@<TRIPOS>BOND
     1     1     7 ar  
     2     1     8 ar  
     3     1    17 1   
     4     2     4 1   
     5     2     6 1   
     6     2    18 1   
     7     2    19 1   
     8     3     4 1   
     9     4     5 1   
    10     6     7 ar  
    11     6    10 ar  
    12     7    20 1   
    13     8     9 ar  
    14     8    11 ar  
    15     9    14 ar  
    16     9    21 1   
    17    10    11 ar  
    18    10    22 1   
    19    11    12 ar  
    20    12    13 ar  
    21    12    23 1   
    22    13    14 ar  
    23    13    24 1   
    24    14    15 1   
    25    15    16 1   
    26    16    25 1   
    27    16    26 1   
    28    16    27 1   
@<TRIPOS>SUBSTRUCTURE
     1 PWY         1 TEMP              0 ****  ****    0 ROOT
