@<TRIPOS>MOLECULE
PWY
   27    28     1     0     0
SMALL
bcc


@<TRIPOS>ATOM
      1 C10          0.1230    -1.7940    -0.1030 ca         1 PWY      -0.156000
      2 C11          3.2880     0.0400     0.8810 c3         1 PWY      -0.193100
      3 O1           3.7330    -0.2750    -1.4530 o          1 PWY      -0.830800
      4 C12          4.2210     0.0450    -0.3550 c          1 PWY       0.934600
      5 O2           5.4030     0.3680    -0.1250 o          1 PWY      -0.830800
      6 C8           1.8470    -0.2220     0.5830 ca         1 PWY       0.010700
      7 C9           1.4310    -1.5140     0.1670 ca         1 PWY      -0.069000
      8 C3          -0.8730    -0.7910     0.0120 ca         1 PWY      -0.016000
      9 C2          -2.2310    -1.0460    -0.2620 ca         1 PWY      -0.156000
     10 C7           0.8950     0.7550     0.7030 ca         1 PWY      -0.150000
     11 C4          -0.4710     0.5050     0.4230 ca         1 PWY      -0.051000
     12 C5          -1.4610     1.5030     0.5410 ca         1 PWY      -0.084000
     13 C6          -2.7790     1.2430     0.2700 ca         1 PWY      -0.214000
     14 C1          -3.1750    -0.0520    -0.1380 ca         1 PWY       0.103100
     15 O           -4.4520    -0.3840    -0.4190 os         1 PWY      -0.331900
     16 C           -5.4520     0.6110    -0.3370 c3         1 PWY       0.135700
     17 H1          -0.1700    -2.7910    -0.4120 ha         1 PWY       0.115000
     18 H2           3.6680    -0.7170     1.5760 hc         1 PWY       0.033700
     19 H3           3.3940     0.9950     1.4030 hc         1 PWY       0.033700
     20 H5           2.1720    -2.2980     0.0780 ha         1 PWY       0.138000
     21 H6          -2.5340    -2.0380    -0.5760 ha         1 PWY       0.131000
     22 H7           1.1820     1.7520     1.0230 ha         1 PWY       0.122000
     23 H8          -1.1700     2.4990     0.8540 ha         1 PWY       0.121000
     24 H9          -3.5020     2.0400     0.3730 ha         1 PWY       0.117000
     25 H10         -5.5510     1.0150     0.6740 h1         1 PWY       0.029367
     26 H11         -5.2690     1.4370    -1.0300 h1         1 PWY       0.029367
     27 H12         -6.3880     0.1290    -0.6100 h1         1 PWY       0.029367
@<TRIPOS>BOND
     1     1     7 ar  
     2     1     8 ar  
     3     1    17 1   
     4     2     4 1   
     5     2     6 1   
     6     2    18 1   
     7     2    19 1   
     8     3     4 1   
     9     4     5 1   
    10     6     7 ar  
    11     6    10 ar  
    12     7    20 1   
    13     8     9 ar  
    14     8    11 ar  
    15     9    14 ar  
    16     9    21 1   
    17    10    11 ar  
    18    10    22 1   
    19    11    12 ar  
    20    12    13 ar  
    21    12    23 1   
    22    13    14 ar  
    23    13    24 1   
    24    14    15 1   
    25    15    16 1   
    26    16    25 1   
    27    16    26 1   
    28    16    27 1   
@<TRIPOS>SUBSTRUCTURE
     1 PWY         1 TEMP              0 ****  ****    0 ROOT
