@<TRIPOS>MOLECULE
PX1
   36    38     1     0     0
SMALL
No Charge or Current Charge


@<TRIPOS>ATOM
      1 C1           2.3140    -1.0840    -0.0850 cc         1 PX1      -0.366400
      2 C            2.3800    -2.4670    -0.1100 c2         1 PX1       0.102100
      3 O            3.5610    -3.1180    -0.1390 oh         1 PX1      -0.471100
      4 C2           3.4770    -0.1960    -0.0900 cc         1 PX1       0.419600
      5 N2           4.7070    -0.6300    -0.1230 n2         1 PX1      -0.692100
      6 C3           3.3240     1.3050    -0.0590 c          1 PX1       0.453000
      7 O3           4.3010     2.0560    -0.0720 o          1 PX1      -0.527100
      8 C4           1.9480     1.8540    -0.0150 cd         1 PX1      -0.224400
      9 O5          -0.3280     1.6460    -0.0050 os         1 PX1      -0.294000
     10 C6          -2.7020     1.4240     0.0520 ca         1 PX1      -0.142300
     11 C7          -3.8560     0.6160     0.0440 ca         1 PX1       0.336000
     12 C8          -3.7390    -0.7750     0.0160 ca         1 PX1      -0.151000
     13 C9          -2.4750    -1.4030    -0.0120 ca         1 PX1      -0.095600
     14 C5          -2.4010    -2.9130    -0.0410 c          1 PX1       0.587500
     15 O1          -3.3970    -3.6330    -0.0420 o          1 PX1      -0.520100
     16 N10         -0.0690    -1.2860    -0.0540 nd         1 PX1      -0.679000
     17 C11          0.9900    -0.4740    -0.0530 cc         1 PX1       0.434800
     18 C12          0.8760     0.9800    -0.0220 cc         1 PX1       0.176000
     19 C13         -1.4260     0.8070     0.0130 ca         1 PX1       0.180000
     20 C14         -1.3010    -0.6130    -0.0170 ca         1 PX1       0.179000
     21 C15          1.8510     3.3790     0.0180 c3         1 PX1      -0.032900
     22 C16         -2.8320     2.9580     0.0880 c3         1 PX1      -0.039800
     23 N7          -5.1140     1.1640     0.0570 nv         1 PX1      -1.084000
     24 H            1.4960    -3.1120    -0.1060 h4         1 PX1       0.188000
     25 HA           3.3790    -4.0830    -0.1530 ho         1 PX1       0.472000
     26 H2           5.3400     0.1860    -0.1210 hn         1 PX1       0.403400
     27 H8          -4.6420    -1.3800     0.0160 ha         1 PX1       0.139000
     28 H9          -1.3910    -3.3780    -0.0610 h4         1 PX1       0.015200
     29 H151         2.5600     3.8110     0.7350 hc         1 PX1       0.049367
     30 H152         2.0760     3.8050    -0.9670 hc         1 PX1       0.049367
     31 H153         0.8610     3.7440     0.3130 hc         1 PX1       0.049367
     32 H161        -3.5930     3.2800     0.8080 hc         1 PX1       0.048367
     33 H162        -1.9060     3.4620     0.3840 hc         1 PX1       0.048367
     34 H163        -3.1160     3.3470    -0.8970 hc         1 PX1       0.048367
     35 H7N1        -5.2250     2.1640    -0.0940 hn         1 PX1       0.470500
     36 H7N2        -5.9270     0.5760    -0.1150 hn         1 PX1       0.470500
@<TRIPOS>BOND
     1     1     2 2   
     2     1     4 1   
     3     1    17 1   
     4     2     3 1   
     5     2    24 1   
     6     3    25 1   
     7     4     5 2   
     8     4     6 1   
     9     5    26 1   
    10     6     7 2   
    11     6     8 1   
    12     8    18 2   
    13     8    21 1   
    14     9    18 1   
    15     9    19 1   
    16    10    11 ar  
    17    10    19 ar  
    18    10    22 1   
    19    11    12 ar  
    20    11    23 1   
    21    12    13 ar  
    22    12    27 1   
    23    13    14 1   
    24    13    20 ar  
    25    14    15 2   
    26    14    28 1   
    27    16    17 2   
    28    16    20 1   
    29    17    18 1   
    30    19    20 ar  
    31    21    29 1   
    32    21    30 1   
    33    21    31 1   
    34    22    32 1   
    35    22    33 1   
    36    22    34 1   
    37    23    35 1   
    38    23    36 1   
@<TRIPOS>SUBSTRUCTURE
     1 PX1         1 TEMP              0 ****  ****    0 ROOT
