@<TRIPOS>MOLECULE
PX1
   36    38     1     0     0
SMALL
abcg2


@<TRIPOS>ATOM
      1 C1           2.3280    -1.0610    -0.0700 cc         1 PX1      -0.366400
      2 C            2.3910    -2.4180    -0.0250 c2         1 PX1       0.102100
      3 O            3.5060    -3.1070    -0.0250 oh         1 PX1      -0.471100
      4 C2           3.5040    -0.1970    -0.1100 cc         1 PX1       0.419600
      5 N2           4.6860    -0.6560    -0.1920 n2         1 PX1      -0.692100
      6 C3           3.2970     1.3100    -0.0440 c          1 PX1       0.453000
      7 O3           4.2880     2.0230    -0.0430 o          1 PX1      -0.527100
      8 C4           1.9580     1.8470     0.0070 cd         1 PX1      -0.224400
      9 O5          -0.3190     1.5320    -0.0010 os         1 PX1      -0.294000
     10 C6          -2.6620     1.4260     0.0330 ca         1 PX1      -0.142300
     11 C7          -3.8240     0.6250     0.0200 ca         1 PX1       0.336000
     12 C8          -3.7060    -0.7690    -0.0350 ca         1 PX1      -0.151000
     13 C9          -2.4700    -1.3890    -0.0700 ca         1 PX1      -0.095600
     14 C5          -2.3830    -2.8590    -0.1260 c          1 PX1       0.587500
     15 O1          -3.3500    -3.5860    -0.1460 o          1 PX1      -0.520100
     16 N10         -0.0630    -1.1930    -0.0820 nd         1 PX1      -0.679000
     17 C11          0.9990    -0.4610    -0.0590 cc         1 PX1       0.434800
     18 C12          0.9050     0.9900    -0.0170 cc         1 PX1       0.176000
     19 C13         -1.4430     0.7740    -0.0070 ca         1 PX1       0.180000
     20 C14         -1.3000    -0.6140    -0.0530 ca         1 PX1       0.179000
     21 C15          1.7490     3.3280     0.0540 c3         1 PX1      -0.032900
     22 C16         -2.7800     2.9170     0.0920 c3         1 PX1      -0.039800
     23 N7          -5.0560     1.2030     0.1130 nv         1 PX1      -1.084000
     24 H            1.4640    -2.9820     0.0210 h4         1 PX1       0.188000
     25 HA           3.3100    -4.0510     0.0250 ho         1 PX1       0.472000
     26 H2           5.3420     0.1250    -0.1970 hn         1 PX1       0.403400
     27 H8          -4.6050    -1.3740    -0.0500 ha         1 PX1       0.139000
     28 H9          -1.3640    -3.2720    -0.1500 h4         1 PX1       0.015200
     29 H151         2.6850     3.8450     0.2480 hc         1 PX1       0.049367
     30 H152         1.3530     3.7040    -0.8920 hc         1 PX1       0.049367
     31 H153         1.0420     3.6120     0.8350 hc         1 PX1       0.049367
     32 H161        -3.3640     3.2250     0.9620 hc         1 PX1       0.048367
     33 H162        -1.8160     3.4150     0.1520 hc         1 PX1       0.048367
     34 H163        -3.2920     3.3040    -0.7930 hc         1 PX1       0.048367
     35 H7N1        -5.1600     2.1680    -0.1530 hn         1 PX1       0.470500
     36 H7N2        -5.8490     0.6350    -0.1330 hn         1 PX1       0.470500
@<TRIPOS>BOND
     1     1     2 2   
     2     1     4 1   
     3     1    17 1   
     4     2     3 1   
     5     2    24 1   
     6     3    25 1   
     7     4     5 2   
     8     4     6 1   
     9     5    26 1   
    10     6     7 2   
    11     6     8 1   
    12     8    18 2   
    13     8    21 1   
    14     9    18 1   
    15     9    19 1   
    16    10    11 ar  
    17    10    19 ar  
    18    10    22 1   
    19    11    12 ar  
    20    11    23 1   
    21    12    13 ar  
    22    12    27 1   
    23    13    14 1   
    24    13    20 ar  
    25    14    15 2   
    26    14    28 1   
    27    16    17 2   
    28    16    20 1   
    29    17    18 1   
    30    19    20 ar  
    31    21    29 1   
    32    21    30 1   
    33    21    31 1   
    34    22    32 1   
    35    22    33 1   
    36    22    34 1   
    37    23    35 1   
    38    23    36 1   
@<TRIPOS>SUBSTRUCTURE
     1 PX1         1 TEMP              0 ****  ****    0 ROOT
