@<TRIPOS>MOLECULE
PX3
   63    66     1     0     0
SMALL
No Charge or Current Charge


@<TRIPOS>ATOM
      1 C1          -1.0890    -4.8130     2.0350 ca         1 PX3      -0.126000
      2 C2          -2.4700    -4.7370     1.8160 ca         1 PX3      -0.112000
      3 C3          -0.3040    -3.6500     1.9780 ca         1 PX3      -0.092000
      4 C4          -3.0660    -3.5000     1.5310 ca         1 PX3      -0.123000
      5 C5          -3.6830     2.2030     1.4640 ca         1 PX3      -0.125000
      6 C6           3.1020    -0.3250    -1.4150 ca         1 PX3      -0.056000
      7 C7           4.4190    -1.4070     0.3210 ca         1 PX3      -0.056000
      8 C8          -3.3920     3.2400     2.3730 ca         1 PX3      -0.116000
      9 C9           4.0660    -0.6900    -2.3700 ca         1 PX3      -0.185500
     10 C10          5.3840    -1.7720    -0.6360 ca         1 PX3      -0.185500
     11 C11         -0.8920    -2.3910     1.7080 ca         1 PX3      -0.110600
     12 C12         -1.7140     2.7900     0.1140 ca         1 PX3      -0.092600
     13 C13          3.2760    -0.6810    -0.0640 ca         1 PX3      -0.123300
     14 C14         -2.2920    -2.3210     1.4700 ca         1 PX3      -0.037300
     15 C24          2.2290    -0.2940     0.9670 c3         1 PX3       0.131300
     16 C15         -2.8490     1.9590     0.3400 ca         1 PX3      -0.055300
     17 C16         -2.2590     4.0200     2.1330 ca         1 PX3       0.034100
     18 C17         -1.4540     3.8080     1.0480 ca         1 PX3       0.064100
     19 C18          5.2080    -1.4130    -1.9900 ca         1 PX3       0.124100
     20 C20         -1.9870    -1.0900    -2.6270 c2         1 PX3      -0.188200
     21 C21         -0.0150    -1.1600     1.6830 c          1 PX3       0.623700
     22 C23         -0.5820     5.4480     2.2490 c5         1 PX3       0.367600
     23 C26         -2.9850    -1.0160     1.0580 c3         1 PX3       0.209100
     24 C27         -3.2090     0.8110    -0.6110 c3         1 PX3       0.216100
     25 C28         -2.7240    -1.4940    -1.3650 c3         1 PX3       0.204000
     26 N32          1.2160    -1.3370     1.0930 ns         1 PX3      -0.477900
     27 N33         -2.5710    -0.4950    -0.2780 n3         1 PX3      -0.726600
     28 O34          0.3420     2.3210    -0.9260 o          1 PX3      -0.717500
     29 O35         -0.3140    -0.1080     2.2340 o          1 PX3      -0.603100
     30 O36         -1.2870     2.9600    -2.1830 o          1 PX3      -0.717500
     31 O37         -1.8540     5.0750     2.8860 os         1 PX3      -0.369100
     32 O38         -0.4470     4.7210     0.9800 os         1 PX3      -0.313100
     33 O39          6.1190    -1.7430    -2.9720 os         1 PX3      -0.349100
     34 H1          -0.6240    -5.7720     2.2530 ha         1 PX3       0.103000
     35 H2          -3.0780    -5.6380     1.8580 ha         1 PX3       0.101000
     36 H3           0.7630    -3.7300     2.1720 ha         1 PX3       0.117000
     37 H4          -4.1350    -3.4590     1.3390 ha         1 PX3       0.106000
     38 H5          -4.5590     1.5820     1.6330 ha         1 PX3       0.089000
     39 H8          -4.0300     3.4300     3.2320 ha         1 PX3       0.109000
     40 H6           2.2200     0.2340    -1.7230 ha         1 PX3       0.137500
     41 H9           3.9260    -0.4120    -3.4120 ha         1 PX3       0.112000
     42 H7           4.5610    -1.6910     1.3620 ha         1 PX3       0.137500
     43 H10          6.2550    -2.3320    -0.3090 ha         1 PX3       0.112000
     44 H241         2.7030    -0.1340     1.9460 h1         1 PX3       0.085700
     45 H242         1.7460     0.6470     0.6710 h1         1 PX3       0.085700
     46 H261        -4.0720    -1.1790     1.0610 h1         1 PX3       0.044200
     47 H262        -2.7920    -0.2720     1.8400 h1         1 PX3       0.044200
     48 H32          1.3910    -2.2360     0.6650 hn         1 PX3       0.316500
     49 H271        -4.3020     0.6940    -0.6140 h1         1 PX3       0.053700
     50 H272        -2.9450     1.1140    -1.6310 h1         1 PX3       0.053700
     51 H191         0.0150    -1.3370    -1.9540 ha         1 PX3       0.152000
     52 H192        -0.1820    -0.7650    -3.7120 ha         1 PX3       0.152000
     53 H20         -2.6460    -0.8130    -3.4530 ha         1 PX3       0.222000
     54 H281        -3.7890    -1.6430    -1.5930 h1         1 PX3       0.026200
     55 H282        -2.3260    -2.4690    -1.0570 h1         1 PX3       0.026200
     56 H231        -0.5590     6.5290     2.0650 h2         1 PX3       0.042700
     57 H232         0.2420     5.1580     2.9110 h2         1 PX3       0.042700
     58 H251         7.9520    -1.9370    -1.9730 h1         1 PX3       0.031367
     59 H252         7.0810    -3.4670    -2.2660 h1         1 PX3       0.031367
     60 H253         7.8990    -2.6350    -3.6060 h1         1 PX3       0.031367
     61 C19         -0.6500    -1.0660    -2.7740 c2         1 PX3      -0.358000
     62 C22         -0.8260     2.6410    -1.0940 c          1 PX3       0.723600
     63 C25          7.3200    -2.4820    -2.6860 c3         1 PX3       0.154900
@<TRIPOS>BOND
     1     1     2 ar  
     2     1     3 ar  
     3     1    34 1   
     4     2     4 ar  
     5     2    35 1   
     6     3    11 ar  
     7     3    36 1   
     8     4    14 ar  
     9     4    37 1   
    10     5     8 ar  
    11     5    16 ar  
    12     5    38 1   
    13     6     9 ar  
    14     6    13 ar  
    15     6    40 1   
    16     7    10 ar  
    17     7    13 ar  
    18     7    42 1   
    19     8    17 ar  
    20     8    39 1   
    21     9    19 ar  
    22     9    41 1   
    23    10    19 ar  
    24    10    43 1   
    25    11    14 ar  
    26    11    21 1   
    27    12    16 ar  
    28    12    18 ar  
    29    12    62 1   
    30    13    15 1   
    31    14    23 1   
    32    15    26 1   
    33    15    44 1   
    34    15    45 1   
    35    16    24 1   
    36    17    18 ar  
    37    17    31 1   
    38    18    32 1   
    39    19    33 1   
    40    20    25 1   
    41    20    53 1   
    42    20    61 2   
    43    21    26 1   
    44    21    29 2   
    45    22    31 1   
    46    22    32 1   
    47    22    56 1   
    48    22    57 1   
    49    23    27 1   
    50    23    46 1   
    51    23    47 1   
    52    24    27 1   
    53    24    49 1   
    54    24    50 1   
    55    25    27 1   
    56    25    54 1   
    57    25    55 1   
    58    26    48 1   
    59    28    62 1   
    60    30    62 1   
    61    33    63 1   
    62    51    61 1   
    63    52    61 1   
    64    58    63 1   
    65    59    63 1   
    66    60    63 1   
@<TRIPOS>SUBSTRUCTURE
     1 PX3         1 TEMP              0 ****  ****    0 ROOT
