@<TRIPOS>MOLECULE
PX3
   63    66     1     0     0
SMALL
abcg2


@<TRIPOS>ATOM
      1 C1          -1.0480    -4.8140     1.9570 ca         1 PX3      -0.126000
      2 C2          -2.4210    -4.8530     1.7750 ca         1 PX3      -0.112000
      3 C3          -0.3790    -3.6000     1.8580 ca         1 PX3      -0.092000
      4 C4          -3.1120    -3.6840     1.4810 ca         1 PX3      -0.123000
      5 C5          -3.0620     2.0650     1.7080 ca         1 PX3      -0.125000
      6 C6           2.7720     0.1270    -1.6250 ca         1 PX3      -0.056000
      7 C7           3.7250    -0.8730     0.3200 ca         1 PX3      -0.056000
      8 C8          -2.4450     2.9590     2.5880 ca         1 PX3      -0.116000
      9 C9           3.8840    -0.2380    -2.3650 ca         1 PX3      -0.185500
     10 C10          4.8510    -1.2450    -0.4040 ca         1 PX3      -0.185500
     11 C11         -1.0750    -2.4270     1.5890 ca         1 PX3      -0.110600
     12 C12         -1.4690     2.5330    -0.0710 ca         1 PX3      -0.092600
     13 C13          2.6740    -0.1820    -0.2700 ca         1 PX3      -0.123300
     14 C14         -2.4570    -2.4620     1.3900 ca         1 PX3      -0.037300
     15 C24          1.4420     0.1730     0.5150 c3         1 PX3       0.131300
     16 C15         -2.5920     1.8250     0.4240 ca         1 PX3      -0.055300
     17 C16         -1.3260     3.5900     2.1160 ca         1 PX3       0.034100
     18 C17         -0.8560     3.3790     0.8280 ca         1 PX3       0.064100
     19 C18          4.9340    -0.9290    -1.7600 ca         1 PX3       0.124100
     20 C20         -1.5390    -1.0950    -2.2530 c2         1 PX3      -0.188200
     21 C21         -0.3230    -1.1280     1.6200 c          1 PX3       0.623700
     22 C23          0.5680     4.7020     1.8920 c5         1 PX3       0.367600
     23 C26         -3.2130    -1.2140     1.0230 c3         1 PX3       0.209100
     24 C27         -3.2600     0.7410    -0.3860 c3         1 PX3       0.216100
     25 C28         -2.6840    -1.4180    -1.3410 c3         1 PX3       0.204000
     26 N32          0.6040    -1.0020     0.6610 ns         1 PX3      -0.477900
     27 N33         -2.6600    -0.5720    -0.1530 n3         1 PX3      -0.726600
     28 O34          0.2540     2.5140    -1.6830 o          1 PX3      -0.717500
     29 O35         -0.4930    -0.3260     2.5260 o          1 PX3      -0.603100
     30 O36         -1.8510     2.5070    -2.4020 o          1 PX3      -0.717500
     31 O37         -0.5590     4.5260     2.7360 os         1 PX3      -0.369100
     32 O38          0.2090     4.2040     0.6190 os         1 PX3      -0.313100
     33 O39          5.9790    -1.2470    -2.5510 os         1 PX3      -0.349100
     34 H1          -0.4970    -5.7190     2.1760 ha         1 PX3       0.103000
     35 H2          -2.9550    -5.7920     1.8460 ha         1 PX3       0.101000
     36 H3           0.6940    -3.5670     2.0030 ha         1 PX3       0.117000
     37 H4          -4.1820    -3.7240     1.3090 ha         1 PX3       0.106000
     38 H5          -3.9470     1.5410     2.0470 ha         1 PX3       0.089000
     39 H8          -2.8340     3.1410     3.5810 ha         1 PX3       0.109000
     40 H6           1.9650     0.6690    -2.1020 ha         1 PX3       0.137500
     41 H9           3.9460     0.0110    -3.4170 ha         1 PX3       0.112000
     42 H7           3.6760    -1.1310     1.3710 ha         1 PX3       0.137500
     43 H10          5.6460    -1.7750     0.1020 ha         1 PX3       0.112000
     44 H241         1.7090     0.5250     1.5120 h1         1 PX3       0.085700
     45 H242         0.8970     0.9770     0.0180 h1         1 PX3       0.085700
     46 H261        -4.2820    -1.4590     0.9060 h1         1 PX3       0.044200
     47 H262        -3.1470    -0.5060     1.8510 h1         1 PX3       0.044200
     48 H32          0.5050    -1.5870    -0.1540 hn         1 PX3       0.316500
     49 H271        -4.3370     0.7210    -0.1530 h1         1 PX3       0.053700
     50 H272        -3.1790     0.9810    -1.4420 h1         1 PX3       0.053700
     51 H191        -0.6320    -3.0020    -2.2810 ha         1 PX3       0.152000
     52 H192         0.2060    -1.6940    -3.2730 ha         1 PX3       0.152000
     53 H20         -1.4820    -0.0750    -2.6190 ha         1 PX3       0.222000
     54 H281        -3.6380    -1.3330    -1.8860 h1         1 PX3       0.026200
     55 H282        -2.6000    -2.4640    -1.0410 h1         1 PX3       0.026200
     56 H231         0.8170     5.7610     1.8210 h2         1 PX3       0.042700
     57 H232         1.4210     4.1370     2.2890 h2         1 PX3       0.042700
     58 H251         7.5540    -1.3300    -1.1870 h1         1 PX3       0.031367
     59 H252         6.7970    -2.8930    -1.5640 h1         1 PX3       0.031367
     60 H253         7.7990    -2.0770    -2.7760 h1         1 PX3       0.031367
     61 C19         -0.6110    -1.9720    -2.6210 c2         1 PX3      -0.358000
     62 C22         -0.9770     2.4970    -1.5120 c          1 PX3       0.723600
     63 C25          7.0800    -1.9210    -1.9760 c3         1 PX3       0.154900
@<TRIPOS>BOND
     1     1     2 ar  
     2     1     3 ar  
     3     1    34 1   
     4     2     4 ar  
     5     2    35 1   
     6     3    11 ar  
     7     3    36 1   
     8     4    14 ar  
     9     4    37 1   
    10     5     8 ar  
    11     5    16 ar  
    12     5    38 1   
    13     6     9 ar  
    14     6    13 ar  
    15     6    40 1   
    16     7    10 ar  
    17     7    13 ar  
    18     7    42 1   
    19     8    17 ar  
    20     8    39 1   
    21     9    19 ar  
    22     9    41 1   
    23    10    19 ar  
    24    10    43 1   
    25    11    14 ar  
    26    11    21 1   
    27    12    16 ar  
    28    12    18 ar  
    29    12    62 1   
    30    13    15 1   
    31    14    23 1   
    32    15    26 1   
    33    15    44 1   
    34    15    45 1   
    35    16    24 1   
    36    17    18 ar  
    37    17    31 1   
    38    18    32 1   
    39    19    33 1   
    40    20    25 1   
    41    20    53 1   
    42    20    61 2   
    43    21    26 1   
    44    21    29 2   
    45    22    31 1   
    46    22    32 1   
    47    22    56 1   
    48    22    57 1   
    49    23    27 1   
    50    23    46 1   
    51    23    47 1   
    52    24    27 1   
    53    24    49 1   
    54    24    50 1   
    55    25    27 1   
    56    25    54 1   
    57    25    55 1   
    58    26    48 1   
    59    28    62 1   
    60    30    62 1   
    61    33    63 1   
    62    51    61 1   
    63    52    61 1   
    64    58    63 1   
    65    59    63 1   
    66    60    63 1   
@<TRIPOS>SUBSTRUCTURE
     1 PX3         1 TEMP              0 ****  ****    0 ROOT
