@<TRIPOS>MOLECULE
PX4
  118   117     1     0     0
SMALL
No Charge or Current Charge


@<TRIPOS>ATOM
      1 O1           3.6140    -6.2640    -0.3550 o          1 PX4      -0.816500
      2 O2           2.0320    -8.1490    -0.2230 o          1 PX4      -0.816500
      3 P1           2.1830    -6.6780    -0.4260 p5         1 PX4       1.375800
      4 O3           1.5070    -6.2050    -1.8140 os         1 PX4      -0.571400
      5 C1           1.8410    -4.9400    -2.4160 c3         1 PX4       0.211600
      6 C2           1.1600    -3.7820    -1.6430 c3         1 PX4       0.085600
      7 N1           2.0190    -2.6030    -1.1540 n4         1 PX4      -0.486000
      8 C3           2.7090    -1.9100    -2.3420 c3         1 PX4       0.072900
      9 C4           1.1100    -1.5920    -0.4460 c3         1 PX4       0.072900
     10 C5           3.0770    -3.0990    -0.1610 c3         1 PX4       0.072900
     11 O4           1.2680    -5.8520     0.6090 os         1 PX4      -0.572400
     12 C6          -0.0150    -6.3840     0.9770 c3         1 PX4       0.202600
     13 C7          -0.9290    -5.2880     1.6170 c3         1 PX4       0.171300
     14 C8          -0.4230    -4.6780     2.9530 c3         1 PX4       0.171600
     15 O5           0.8700    -4.0600     2.7900 os         1 PX4      -0.405100
     16 C9           1.4340    -3.4650     3.8870 c          1 PX4       0.594100
     17 O6           0.8730    -3.3250     4.9660 o          1 PX4      -0.499000
     18 C10          2.8280    -2.9140     3.5810 c3         1 PX4      -0.137400
     19 C11          2.7590    -1.4720     3.0290 c3         1 PX4      -0.073400
     20 C12          4.1440    -0.9110     2.6400 c3         1 PX4      -0.071400
     21 C13          4.0680     0.4510     1.9170 c3         1 PX4      -0.078400
     22 C14          5.4570     0.9940     1.5190 c3         1 PX4      -0.072400
     23 C15          5.3920     2.3320     0.7520 c3         1 PX4      -0.076400
     24 C16          6.7870     2.8750     0.3730 c3         1 PX4      -0.072400
     25 C17          6.7290     4.2070    -0.4080 c3         1 PX4      -0.075400
     26 C18          8.1280     4.7550    -0.7680 c3         1 PX4      -0.073400
     27 C19          8.0750     6.0800    -1.5610 c3         1 PX4      -0.075400
     28 C20          9.4760     6.6270    -1.9130 c3         1 PX4      -0.075400
     29 C21          9.4270     7.9430    -2.7210 c3         1 PX4      -0.075400
     30 C22         10.8250     8.4940    -3.0630 c3         1 PX4      -0.088100
     31 O7          -1.2050    -4.2110     0.6830 os         1 PX4      -0.428100
     32 C23         -2.0410    -4.4520    -0.3780 c          1 PX4       0.597100
     33 O8          -2.6210    -5.5100    -0.5790 o          1 PX4      -0.494000
     34 C24         -2.3390    -3.1720    -1.1600 c3         1 PX4      -0.136400
     35 C25         -3.5470    -2.4280    -0.5460 c3         1 PX4      -0.069400
     36 C26         -3.8890    -1.1040    -1.2630 c3         1 PX4      -0.074400
     37 C27         -5.1100    -0.3970    -0.6340 c3         1 PX4      -0.075400
     38 C28         -5.4850     0.9330    -1.3230 c3         1 PX4      -0.073400
     39 C29         -6.7230     1.5960    -0.6770 c3         1 PX4      -0.075400
     40 C30         -7.1330     2.9300    -1.3390 c3         1 PX4      -0.073400
     41 C31         -8.3830     3.5550    -0.6800 c3         1 PX4      -0.074400
     42 C32         -8.8150     4.8930    -1.3200 c3         1 PX4      -0.073400
     43 C33        -10.0770     5.4900    -0.6560 c3         1 PX4      -0.075400
     44 C34        -10.5230     6.8300    -1.2790 c3         1 PX4      -0.075400
     45 C35        -11.7920     7.4090    -0.6140 c3         1 PX4      -0.075400
     46 C36        -12.2410     8.7480    -1.2300 c3         1 PX4      -0.088100
     47 H1           2.9280    -4.7900    -2.4270 h1         1 PX4       0.056200
     48 H2           1.5010    -4.9150    -3.4600 h1         1 PX4       0.056200
     49 H3           0.3810    -3.3680    -2.2870 hx         1 PX4       0.079700
     50 H4           0.6670    -4.1950    -0.7640 hx         1 PX4       0.079700
     51 H5           1.9500    -1.5590    -3.0470 hx         1 PX4       0.095811
     52 H6           3.2880    -1.0600    -1.9740 hx         1 PX4       0.095811
     53 H7           3.3770    -2.6170    -2.8390 hx         1 PX4       0.095811
     54 H8           1.7160    -0.7690    -0.0620 hx         1 PX4       0.095811
     55 H9           0.3770    -1.2040    -1.1580 hx         1 PX4       0.095811
     56 H10          0.5950    -2.0900     0.3810 hx         1 PX4       0.095811
     57 H11          3.7520    -3.7960    -0.6630 hx         1 PX4       0.095811
     58 H12          3.6460    -2.2460     0.2110 hx         1 PX4       0.095811
     59 H13          2.5750    -3.6060     0.6700 hx         1 PX4       0.095811
     60 H14          0.1130    -7.1950     1.7070 h1         1 PX4       0.044700
     61 H15         -0.5210    -6.8150     0.1040 h1         1 PX4       0.044700
     62 H16         -1.8750    -5.7850     1.8720 h1         1 PX4       0.064700
     63 H17         -0.3680    -5.4770     3.7040 h1         1 PX4       0.053700
     64 H18         -1.1600    -3.9430     3.3010 h1         1 PX4       0.053700
     65 H19          3.2890    -3.5390     2.8070 hc         1 PX4       0.063200
     66 H20          3.4330    -2.9220     4.4960 hc         1 PX4       0.063200
     67 H21          2.2980    -0.8140     3.7790 hc         1 PX4       0.058700
     68 H22          2.1010    -1.4570     2.1530 hc         1 PX4       0.058700
     69 H23          4.6600    -1.6290     1.9920 hc         1 PX4       0.026200
     70 H24          4.7560    -0.8070     3.5450 hc         1 PX4       0.026200
     71 H25          3.5660     1.1790     2.5670 hc         1 PX4       0.044700
     72 H26          3.4510     0.3470     1.0150 hc         1 PX4       0.044700
     73 H27          5.9700     0.2490     0.8970 hc         1 PX4       0.032200
     74 H28          6.0640     1.1260     2.4240 hc         1 PX4       0.032200
     75 H29          4.8690     3.0760     1.3660 hc         1 PX4       0.040700
     76 H30          4.7980     2.1940    -0.1610 hc         1 PX4       0.040700
     77 H31          7.3140     2.1260    -0.2320 hc         1 PX4       0.035200
     78 H32          7.3760     3.0200     1.2880 hc         1 PX4       0.035200
     79 H33          6.1930     4.9530     0.1920 hc         1 PX4       0.038700
     80 H34          6.1510     4.0590    -1.3290 hc         1 PX4       0.038700
     81 H35          8.6670     4.0030    -1.3600 hc         1 PX4       0.036200
     82 H36          8.7020     4.9090     0.1540 hc         1 PX4       0.036200
     83 H37          7.5320     6.8310    -0.9740 hc         1 PX4       0.037700
     84 H38          7.5060     5.9230    -2.4860 hc         1 PX4       0.037700
     85 H39         10.0240     5.8710    -2.4900 hc         1 PX4       0.036700
     86 H40         10.0400     6.7940    -0.9870 hc         1 PX4       0.036700
     87 H41          8.8750     8.7000    -2.1510 hc         1 PX4       0.037200
     88 H42          8.8730     7.7760    -3.6540 hc         1 PX4       0.037200
     89 H43         10.7390     9.4230    -3.6400 hc         1 PX4       0.031700
     90 H44         11.3910     8.7100    -2.1480 hc         1 PX4       0.031700
     91 H45         11.3940     7.7710    -3.6600 hc         1 PX4       0.031700
     92 H46         -1.4770    -2.5020    -1.1000 hc         1 PX4       0.070200
     93 H47         -2.5640    -3.4260    -2.2020 hc         1 PX4       0.070200
     94 H48         -4.4240    -3.0880    -0.5720 hc         1 PX4       0.054200
     95 H49         -3.3400    -2.2190     0.5120 hc         1 PX4       0.054200
     96 H50         -3.0200    -0.4340    -1.2230 hc         1 PX4       0.035700
     97 H51         -4.0920    -1.3060    -2.3220 hc         1 PX4       0.035700
     98 H52         -5.9720    -1.0750    -0.6730 hc         1 PX4       0.040200
     99 H53         -4.9040    -0.2040     0.4260 hc         1 PX4       0.040200
    100 H54         -4.6330     1.6220    -1.2710 hc         1 PX4       0.035700
    101 H55         -5.6860     0.7470    -2.3850 hc         1 PX4       0.035700
    102 H56         -7.5680     0.8980    -0.7280 hc         1 PX4       0.038200
    103 H57         -6.5190     1.7740     0.3860 hc         1 PX4       0.038200
    104 H58         -6.2960     3.6380    -1.2760 hc         1 PX4       0.036700
    105 H59         -7.3310     2.7590    -2.4050 hc         1 PX4       0.036700
    106 H60         -9.2160     2.8430    -0.7450 hc         1 PX4       0.037700
    107 H61         -8.1840     3.7180     0.3870 hc         1 PX4       0.037700
    108 H62         -7.9900     5.6130    -1.2450 hc         1 PX4       0.036700
    109 H63         -9.0090     4.7360    -2.3890 hc         1 PX4       0.036700
    110 H64        -10.8990     4.7670    -0.7340 hc         1 PX4       0.036700
    111 H65         -9.8840     5.6400     0.4140 hc         1 PX4       0.036700
    112 H66         -9.7060     7.5580    -1.1930 hc         1 PX4       0.036700
    113 H67        -10.7110     6.6840    -2.3510 hc         1 PX4       0.036700
    114 H68        -12.6110     6.6840    -0.7010 hc         1 PX4       0.036700
    115 H69        -11.6070     7.5550     0.4570 hc         1 PX4       0.036700
    116 H70        -13.1440     9.1150    -0.7290 hc         1 PX4       0.031033
    117 H71        -11.4560     9.5060    -1.1230 hc         1 PX4       0.031033
    118 H72        -12.4650     8.6280    -2.2970 hc         1 PX4       0.031033
@<TRIPOS>BOND
     1     1     3 1   
     2     2     3 1   
     3     3     4 1   
     4     3    11 1   
     5     4     5 1   
     6     5     6 1   
     7     5    47 1   
     8     5    48 1   
     9     6     7 1   
    10     6    49 1   
    11     6    50 1   
    12     7     8 1   
    13     7     9 1   
    14     7    10 1   
    15     8    51 1   
    16     8    52 1   
    17     8    53 1   
    18     9    54 1   
    19     9    55 1   
    20     9    56 1   
    21    10    57 1   
    22    10    58 1   
    23    10    59 1   
    24    11    12 1   
    25    12    13 1   
    26    12    60 1   
    27    12    61 1   
    28    13    14 1   
    29    13    31 1   
    30    13    62 1   
    31    14    15 1   
    32    14    63 1   
    33    14    64 1   
    34    15    16 1   
    35    16    17 2   
    36    16    18 1   
    37    18    19 1   
    38    18    65 1   
    39    18    66 1   
    40    19    20 1   
    41    19    67 1   
    42    19    68 1   
    43    20    21 1   
    44    20    69 1   
    45    20    70 1   
    46    21    22 1   
    47    21    71 1   
    48    21    72 1   
    49    22    23 1   
    50    22    73 1   
    51    22    74 1   
    52    23    24 1   
    53    23    75 1   
    54    23    76 1   
    55    24    25 1   
    56    24    77 1   
    57    24    78 1   
    58    25    26 1   
    59    25    79 1   
    60    25    80 1   
    61    26    27 1   
    62    26    81 1   
    63    26    82 1   
    64    27    28 1   
    65    27    83 1   
    66    27    84 1   
    67    28    29 1   
    68    28    85 1   
    69    28    86 1   
    70    29    30 1   
    71    29    87 1   
    72    29    88 1   
    73    30    89 1   
    74    30    90 1   
    75    30    91 1   
    76    31    32 1   
    77    32    33 2   
    78    32    34 1   
    79    34    35 1   
    80    34    92 1   
    81    34    93 1   
    82    35    36 1   
    83    35    94 1   
    84    35    95 1   
    85    36    37 1   
    86    36    96 1   
    87    36    97 1   
    88    37    38 1   
    89    37    98 1   
    90    37    99 1   
    91    38    39 1   
    92    38   100 1   
    93    38   101 1   
    94    39    40 1   
    95    39   102 1   
    96    39   103 1   
    97    40    41 1   
    98    40   104 1   
    99    40   105 1   
   100    41    42 1   
   101    41   106 1   
   102    41   107 1   
   103    42    43 1   
   104    42   108 1   
   105    42   109 1   
   106    43    44 1   
   107    43   110 1   
   108    43   111 1   
   109    44    45 1   
   110    44   112 1   
   111    44   113 1   
   112    45    46 1   
   113    45   114 1   
   114    45   115 1   
   115    46   116 1   
   116    46   117 1   
   117    46   118 1   
@<TRIPOS>SUBSTRUCTURE
     1 PX4         1 TEMP              0 ****  ****    0 ROOT
