@<TRIPOS>MOLECULE
PX4
  118   117     1     0     0
SMALL
abcg2


@<TRIPOS>ATOM
      1 O1           1.7900    -6.0460     0.4650 o          1 PX4      -0.816500
      2 O2          -0.5290    -6.7440    -0.4550 o          1 PX4      -0.816500
      3 P1           0.4650    -5.6720    -0.1340 p5         1 PX4       1.375800
      4 O3           0.7220    -4.7180    -1.4530 os         1 PX4      -0.571400
      5 C1           1.3120    -5.3310    -2.5760 c3         1 PX4       0.211600
      6 C2           2.4070    -4.4860    -3.1860 c3         1 PX4       0.085600
      7 N1           3.6900    -4.3420    -2.4070 n4         1 PX4      -0.486000
      8 C3           4.2310    -5.6730    -2.0120 c3         1 PX4       0.072900
      9 C4           4.6710    -3.6630    -3.3000 c3         1 PX4       0.072900
     10 C5           3.5100    -3.5040    -1.1860 c3         1 PX4       0.072900
     11 O4          -0.2400    -4.4740     0.7250 os         1 PX4      -0.572400
     12 C6          -0.9400    -4.8490     1.8910 c3         1 PX4       0.202600
     13 C7          -1.1890    -3.6450     2.7800 c3         1 PX4       0.171300
     14 C8           0.0320    -3.0650     3.4550 c3         1 PX4       0.171600
     15 O5           0.9220    -2.5300     2.4820 os         1 PX4      -0.405100
     16 C9           2.0510    -1.9850     2.9180 c          1 PX4       0.594100
     17 O6           2.3440    -1.9120     4.0850 o          1 PX4      -0.499000
     18 C10          2.9060    -1.5040     1.7780 c3         1 PX4      -0.137400
     19 C11          4.0340    -0.5790     2.2040 c3         1 PX4      -0.073400
     20 C12          4.8430    -0.0810     1.0120 c3         1 PX4      -0.071400
     21 C13          5.9650     0.8640     1.4240 c3         1 PX4      -0.078400
     22 C14          6.7390     1.4470     0.2490 c3         1 PX4      -0.072400
     23 C15          7.8280     2.4170     0.6880 c3         1 PX4      -0.076400
     24 C16          8.5820     3.0610    -0.4680 c3         1 PX4      -0.072400
     25 C17          9.6420     4.0520    -0.0030 c3         1 PX4      -0.075400
     26 C18         10.3850     4.7330    -1.1440 c3         1 PX4      -0.073400
     27 C19         11.4270     5.7350    -0.6610 c3         1 PX4      -0.075400
     28 C20         12.1670     6.4360    -1.7930 c3         1 PX4      -0.075400
     29 C21         13.2000     7.4430    -1.3010 c3         1 PX4      -0.075400
     30 C22         13.9320     8.1460    -2.4350 c3         1 PX4      -0.088100
     31 O7          -1.8210    -2.5830     2.0610 os         1 PX4      -0.428100
     32 C23         -3.1440    -2.6060     1.9050 c          1 PX4       0.597100
     33 O8          -3.8480    -3.4880     2.3270 o          1 PX4      -0.494000
     34 C24         -3.6300    -1.4020     1.1440 c3         1 PX4      -0.136400
     35 C25         -5.1430    -1.2540     1.1580 c3         1 PX4      -0.069400
     36 C26         -5.6100     0.0110     0.4500 c3         1 PX4      -0.074400
     37 C27         -7.1260     0.1630     0.4780 c3         1 PX4      -0.075400
     38 C28         -7.6240     1.4600    -0.1450 c3         1 PX4      -0.073400
     39 C29         -9.1420     1.5900    -0.1090 c3         1 PX4      -0.075400
     40 C30         -9.6560     2.9080    -0.6750 c3         1 PX4      -0.073400
     41 C31        -11.1740     3.0230    -0.6350 c3         1 PX4      -0.074400
     42 C32        -11.6970     4.3490    -1.1720 c3         1 PX4      -0.073400
     43 C33        -13.2160     4.4580    -1.1260 c3         1 PX4      -0.075400
     44 C34        -13.7440     5.7890    -1.6470 c3         1 PX4      -0.075400
     45 C35        -15.2620     5.9000    -1.5900 c3         1 PX4      -0.075400
     46 C36        -15.7780     7.2340    -2.1110 c3         1 PX4      -0.088100
     47 H1           1.6840    -6.3380    -2.3680 h1         1 PX4       0.056200
     48 H2           0.5660    -5.4440    -3.3690 h1         1 PX4       0.056200
     49 H3           2.6800    -4.9430    -4.1370 hx         1 PX4       0.079700
     50 H4           2.0510    -3.4760    -3.3920 hx         1 PX4       0.079700
     51 H5           4.2900    -6.3110    -2.8910 hx         1 PX4       0.095811
     52 H6           5.2260    -5.5330    -1.5980 hx         1 PX4       0.095811
     53 H7           3.5870    -6.1190    -1.2590 hx         1 PX4       0.095811
     54 H8           5.6060    -3.5310    -2.7640 hx         1 PX4       0.095811
     55 H9           4.8390    -4.2740    -4.1830 hx         1 PX4       0.095811
     56 H10          4.2750    -2.6950    -3.5930 hx         1 PX4       0.095811
     57 H11          2.9190    -4.0420    -0.4540 hx         1 PX4       0.095811
     58 H12          4.4930    -3.2900    -0.7720 hx         1 PX4       0.095811
     59 H13          3.0230    -2.5730    -1.4630 hx         1 PX4       0.095811
     60 H14         -0.3860    -5.5810     2.4920 h1         1 PX4       0.044700
     61 H15         -1.8980    -5.3110     1.6320 h1         1 PX4       0.044700
     62 H16         -1.8340    -3.9890     3.5950 h1         1 PX4       0.064700
     63 H17          0.5190    -3.8560     4.0310 h1         1 PX4       0.053700
     64 H18         -0.2750    -2.2850     4.1560 h1         1 PX4       0.053700
     65 H19          2.2680    -1.0240     1.0320 hc         1 PX4       0.063200
     66 H20          3.3170    -2.3940     1.2920 hc         1 PX4       0.063200
     67 H21          4.6960    -1.0950     2.9030 hc         1 PX4       0.058700
     68 H22          3.6230     0.2800     2.7420 hc         1 PX4       0.058700
     69 H23          4.1760     0.4300     0.3100 hc         1 PX4       0.026200
     70 H24          5.2630    -0.9330     0.4670 hc         1 PX4       0.026200
     71 H25          6.6560     0.3380     2.0910 hc         1 PX4       0.044700
     72 H26          5.5410     1.6840     2.0140 hc         1 PX4       0.044700
     73 H27          6.0420     1.9630    -0.4210 hc         1 PX4       0.032200
     74 H28          7.1830     0.6370    -0.3390 hc         1 PX4       0.032200
     75 H29          8.5390     1.8950     1.3390 hc         1 PX4       0.040700
     76 H30          7.3780     3.2030     1.3040 hc         1 PX4       0.040700
     77 H31          7.8690     3.5740    -1.1230 hc         1 PX4       0.035200
     78 H32          9.0520     2.2840    -1.0800 hc         1 PX4       0.035200
     79 H33         10.3620     3.5370     0.6420 hc         1 PX4       0.038700
     80 H34          9.1670     4.8150     0.6240 hc         1 PX4       0.038700
     81 H35          9.6650     5.2440    -1.7930 hc         1 PX4       0.036200
     82 H36         10.8710     3.9760    -1.7690 hc         1 PX4       0.036200
     83 H37         12.1510     5.2230    -0.0180 hc         1 PX4       0.037700
     84 H38         10.9390     6.4850    -0.0290 hc         1 PX4       0.037700
     85 H39         11.4430     6.9470    -2.4380 hc         1 PX4       0.036700
     86 H40         12.6610     5.6900    -2.4240 hc         1 PX4       0.036700
     87 H41         13.9240     6.9310    -0.6580 hc         1 PX4       0.037200
     88 H42         12.7060     8.1850    -0.6670 hc         1 PX4       0.037200
     89 H43         14.6620     8.8630    -2.0570 hc         1 PX4       0.031700
     90 H44         14.4650     7.4310    -3.0640 hc         1 PX4       0.031700
     91 H45         13.2350     8.6900    -3.0750 hc         1 PX4       0.031700
     92 H46         -3.1500    -0.5100     1.5560 hc         1 PX4       0.070200
     93 H47         -3.2610    -1.4860     0.1160 hc         1 PX4       0.070200
     94 H48         -5.6060    -2.1260     0.6900 hc         1 PX4       0.054200
     95 H49         -5.4970    -1.2350     2.1920 hc         1 PX4       0.054200
     96 H50         -5.1490     0.8850     0.9230 hc         1 PX4       0.035700
     97 H51         -5.2620     0.0070    -0.5880 hc         1 PX4       0.035700
     98 H52         -7.5850    -0.6890    -0.0360 hc         1 PX4       0.040200
     99 H53         -7.4710     0.1090     1.5170 hc         1 PX4       0.040200
    100 H54         -7.1740     2.3100     0.3790 hc         1 PX4       0.035700
    101 H55         -7.2780     1.5270    -1.1830 hc         1 PX4       0.035700
    102 H56         -9.5900     0.7570    -0.6620 hc         1 PX4       0.038200
    103 H57         -9.4870     1.4840     0.9260 hc         1 PX4       0.038200
    104 H58         -9.2130     3.7400    -0.1160 hc         1 PX4       0.036700
    105 H59         -9.3100     3.0210    -1.7090 hc         1 PX4       0.036700
    106 H60        -11.6160     2.2000    -1.2080 hc         1 PX4       0.037700
    107 H61        -11.5190     2.8890     0.3970 hc         1 PX4       0.037700
    108 H62        -11.2570     5.1720    -0.5970 hc         1 PX4       0.036700
    109 H63        -11.3550     4.4860    -2.2040 hc         1 PX4       0.036700
    110 H64        -13.6560     3.6400    -1.7060 hc         1 PX4       0.036700
    111 H65        -13.5570     4.3130    -0.0940 hc         1 PX4       0.036700
    112 H66        -13.2990     6.6070    -1.0700 hc         1 PX4       0.036700
    113 H67        -13.4090     5.9330    -2.6810 hc         1 PX4       0.036700
    114 H68        -15.7060     5.0830    -2.1680 hc         1 PX4       0.036700
    115 H69        -15.5960     5.7550    -0.5580 hc         1 PX4       0.036700
    116 H70        -16.8650     7.3010    -2.0390 hc         1 PX4       0.031033
    117 H71        -15.3570     8.0670    -1.5450 hc         1 PX4       0.031033
    118 H72        -15.5080     7.3800    -3.1590 hc         1 PX4       0.031033
@<TRIPOS>BOND
     1     1     3 1   
     2     2     3 1   
     3     3     4 1   
     4     3    11 1   
     5     4     5 1   
     6     5     6 1   
     7     5    47 1   
     8     5    48 1   
     9     6     7 1   
    10     6    49 1   
    11     6    50 1   
    12     7     8 1   
    13     7     9 1   
    14     7    10 1   
    15     8    51 1   
    16     8    52 1   
    17     8    53 1   
    18     9    54 1   
    19     9    55 1   
    20     9    56 1   
    21    10    57 1   
    22    10    58 1   
    23    10    59 1   
    24    11    12 1   
    25    12    13 1   
    26    12    60 1   
    27    12    61 1   
    28    13    14 1   
    29    13    31 1   
    30    13    62 1   
    31    14    15 1   
    32    14    63 1   
    33    14    64 1   
    34    15    16 1   
    35    16    17 2   
    36    16    18 1   
    37    18    19 1   
    38    18    65 1   
    39    18    66 1   
    40    19    20 1   
    41    19    67 1   
    42    19    68 1   
    43    20    21 1   
    44    20    69 1   
    45    20    70 1   
    46    21    22 1   
    47    21    71 1   
    48    21    72 1   
    49    22    23 1   
    50    22    73 1   
    51    22    74 1   
    52    23    24 1   
    53    23    75 1   
    54    23    76 1   
    55    24    25 1   
    56    24    77 1   
    57    24    78 1   
    58    25    26 1   
    59    25    79 1   
    60    25    80 1   
    61    26    27 1   
    62    26    81 1   
    63    26    82 1   
    64    27    28 1   
    65    27    83 1   
    66    27    84 1   
    67    28    29 1   
    68    28    85 1   
    69    28    86 1   
    70    29    30 1   
    71    29    87 1   
    72    29    88 1   
    73    30    89 1   
    74    30    90 1   
    75    30    91 1   
    76    31    32 1   
    77    32    33 2   
    78    32    34 1   
    79    34    35 1   
    80    34    92 1   
    81    34    93 1   
    82    35    36 1   
    83    35    94 1   
    84    35    95 1   
    85    36    37 1   
    86    36    96 1   
    87    36    97 1   
    88    37    38 1   
    89    37    98 1   
    90    37    99 1   
    91    38    39 1   
    92    38   100 1   
    93    38   101 1   
    94    39    40 1   
    95    39   102 1   
    96    39   103 1   
    97    40    41 1   
    98    40   104 1   
    99    40   105 1   
   100    41    42 1   
   101    41   106 1   
   102    41   107 1   
   103    42    43 1   
   104    42   108 1   
   105    42   109 1   
   106    43    44 1   
   107    43   110 1   
   108    43   111 1   
   109    44    45 1   
   110    44   112 1   
   111    44   113 1   
   112    45    46 1   
   113    45   114 1   
   114    45   115 1   
   115    46   116 1   
   116    46   117 1   
   117    46   118 1   
@<TRIPOS>SUBSTRUCTURE
     1 PX4         1 TEMP              0 ****  ****    0 ROOT
