@<TRIPOS>MOLECULE
PX5
   26    28     1     0     0
SMALL
No Charge or Current Charge


@<TRIPOS>ATOM
      1 C1           4.0540    -1.8040    -0.2740 ca         1 PX5      -0.113000
      2 C2           2.6680    -1.8810    -0.5200 ca         1 PX5      -0.051000
      3 C3           1.8560    -0.7680    -0.2450 ca         1 PX5       0.089400
      4 C4           2.4180     0.3840     0.2610 ca         1 PX5      -0.199000
      5 C5           3.7940     0.4910     0.5170 ca         1 PX5      -0.074000
      6 C6           4.6170    -0.6190     0.2450 ca         1 PX5      -0.098000
      7 S7           1.2230     1.6390     0.5300 ss         1 PX5       0.101800
      8 C8           0.0230     0.4710    -0.0900 cc         1 PX5       0.375200
      9 N9           0.4830    -0.7450    -0.4520 nd         1 PX5      -0.520100
     10 C10         -1.4610     0.8770    -0.1510 c6         1 PX5       0.221100
     11 C11         -2.1670     0.1210    -1.2750 c2         1 PX5      -0.189700
     12 C12         -3.2560    -0.6640    -1.0820 ce         1 PX5      -0.260200
     13 C13         -3.8680    -0.8860     0.2550 c          1 PX5       0.559500
     14 C14         -3.1880    -0.1880     1.3780 ce         1 PX5      -0.260200
     15 C15         -2.0990     0.6030     1.2080 c2         1 PX5      -0.189700
     16 O16         -1.6390     2.2680    -0.4230 oh         1 PX5      -0.648000
     17 O17         -4.8520    -1.5930     0.4190 o          1 PX5      -0.506100
     18 H1           4.6900    -2.6610    -0.4840 ha         1 PX5       0.119000
     19 H2           2.2300    -2.7930    -0.9190 ha         1 PX5       0.133000
     20 H5           4.2180     1.4100     0.9180 ha         1 PX5       0.124000
     21 H6           5.6870    -0.5610     0.4340 ha         1 PX5       0.116000
     22 H11         -1.7410     0.2480    -2.2730 ha         1 PX5       0.197000
     23 H12         -3.7350    -1.1840    -1.9100 ha         1 PX5       0.205000
     24 H14         -3.6200    -0.3540     2.3640 ha         1 PX5       0.205000
     25 H15         -1.6300     1.0940     2.0640 ha         1 PX5       0.197000
     26 HO16        -2.6100     2.4120    -0.4460 ho         1 PX5       0.466000
@<TRIPOS>BOND
     1     1     2 ar  
     2     1     6 ar  
     3     1    18 1   
     4     2     3 ar  
     5     2    19 1   
     6     3     4 ar  
     7     3     9 1   
     8     4     5 ar  
     9     4     7 1   
    10     5     6 ar  
    11     5    20 1   
    12     6    21 1   
    13     7     8 1   
    14     8     9 2   
    15     8    10 1   
    16    10    11 1   
    17    10    15 1   
    18    10    16 1   
    19    11    12 2   
    20    11    22 1   
    21    12    13 1   
    22    12    23 1   
    23    13    14 1   
    24    13    17 2   
    25    14    15 2   
    26    14    24 1   
    27    15    25 1   
    28    16    26 1   
@<TRIPOS>SUBSTRUCTURE
     1 PX5         1 TEMP              0 ****  ****    0 ROOT
