@<TRIPOS>MOLECULE
PX5
   26    28     1     0     0
SMALL
abcg2


@<TRIPOS>ATOM
      1 C1           3.8290    -1.8680    -0.0230 ca         1 PX5      -0.113000
      2 C2           2.4510    -1.9500    -0.0670 ca         1 PX5      -0.051000
      3 C3           1.7090    -0.7690    -0.0360 ca         1 PX5       0.089400
      4 C4           2.3690     0.4690     0.0380 ca         1 PX5      -0.199000
      5 C5           3.7570     0.5530     0.0820 ca         1 PX5      -0.074000
      6 C6           4.4760    -0.6280     0.0510 ca         1 PX5      -0.098000
      7 S7           1.1980     1.7440     0.0600 ss         1 PX5       0.101800
      8 C8          -0.0480     0.5330    -0.0280 cc         1 PX5       0.375200
      9 N9           0.3370    -0.6870    -0.0710 nd         1 PX5      -0.520100
     10 C10         -1.4990     0.9660    -0.0330 c6         1 PX5       0.221100
     11 C11         -2.1440     0.4010    -1.2670 c2         1 PX5      -0.189700
     12 C12         -3.0720    -0.5500    -1.2340 ce         1 PX5      -0.260200
     13 C13         -3.5650    -1.1050     0.0370 c          1 PX5       0.559500
     14 C14         -3.0440    -0.4940     1.2710 ce         1 PX5      -0.260200
     15 C15         -2.1180     0.4600     1.2400 c2         1 PX5      -0.189700
     16 O16         -1.4700     2.3690    -0.0650 oh         1 PX5      -0.648000
     17 O17         -4.3790    -2.0090     0.0660 o          1 PX5      -0.506100
     18 H1           4.4210    -2.7730    -0.0470 ha         1 PX5       0.119000
     19 H2           1.9460    -2.9050    -0.1260 ha         1 PX5       0.133000
     20 H5           4.2600     1.5080     0.1390 ha         1 PX5       0.124000
     21 H6           5.5560    -0.5910     0.0830 ha         1 PX5       0.116000
     22 H11         -1.7960     0.8080    -2.2100 ha         1 PX5       0.197000
     23 H12         -3.5030    -0.9400    -2.1480 ha         1 PX5       0.205000
     24 H14         -3.4540    -0.8420     2.2110 ha         1 PX5       0.205000
     25 H15         -1.7480     0.9080     2.1560 ha         1 PX5       0.197000
     26 HO16        -2.3720     2.7080    -0.0310 ho         1 PX5       0.466000
@<TRIPOS>BOND
     1     1     2 ar  
     2     1     6 ar  
     3     1    18 1   
     4     2     3 ar  
     5     2    19 1   
     6     3     4 ar  
     7     3     9 1   
     8     4     5 ar  
     9     4     7 1   
    10     5     6 ar  
    11     5    20 1   
    12     6    21 1   
    13     7     8 1   
    14     8     9 2   
    15     8    10 1   
    16    10    11 1   
    17    10    15 1   
    18    10    16 1   
    19    11    12 2   
    20    11    22 1   
    21    12    13 1   
    22    12    23 1   
    23    13    14 1   
    24    13    17 2   
    25    14    15 2   
    26    14    24 1   
    27    15    25 1   
    28    16    26 1   
@<TRIPOS>SUBSTRUCTURE
     1 PX5         1 TEMP              0 ****  ****    0 ROOT
