@<TRIPOS>MOLECULE
PX9
   48    49     1     0     0
SMALL
abcg2


@<TRIPOS>ATOM
      1 C1           9.7390     0.0470    -0.2560 c3         1 PX9      -0.088100
      2 C2           8.3720     0.6770    -0.0260 c3         1 PX9      -0.074400
      3 C3           7.2430    -0.3460    -0.0960 c3         1 PX9      -0.083400
      4 C4           5.8900     0.2970     0.1270 c3         1 PX9       0.165600
      5 O5           4.8970    -0.7100     0.0360 os         1 PX9      -0.351100
      6 C6           3.5960    -0.3500     0.1160 ca         1 PX9       0.110100
      7 C9           3.1480     0.9370     0.4050 ca         1 PX9      -0.135000
      8 C10          1.7890     1.2050     0.4690 ca         1 PX9      -0.135000
      9 C11          0.8480     0.2030     0.2500 ca         1 PX9       0.108100
     10 C8           1.2960    -1.0850    -0.0380 ca         1 PX9      -0.135000
     11 C7           2.6550    -1.3520    -0.1030 ca         1 PX9      -0.135000
     12 O12         -0.4520     0.5650     0.3350 os         1 PX9      -0.350100
     13 C13         -1.4490    -0.4090     0.0820 c3         1 PX9       0.165600
     14 C14         -2.8010     0.2590     0.2260 c3         1 PX9      -0.084400
     15 C15         -3.9240    -0.7210    -0.0850 c3         1 PX9       0.170800
     16 N16         -5.2430    -0.1780     0.1790 n3         1 PX9      -0.714600
     17 C18         -6.2570    -1.2160     0.1250 c6         1 PX9       0.125800
     18 C19         -7.6190    -0.6370     0.4580 c6         1 PX9       0.152600
     19 O20         -7.9620     0.4170    -0.4140 os         1 PX9      -0.449000
     20 C21         -6.9830     1.4320    -0.3720 c6         1 PX9       0.152600
     21 C17         -5.6060     0.9020    -0.7220 c6         1 PX9       0.125800
     22 H1          10.5340     0.7910    -0.1950 hc         1 PX9       0.034033
     23 H2           9.9490    -0.7240     0.4870 hc         1 PX9       0.034033
     24 H3           9.7960    -0.4200    -1.2400 hc         1 PX9       0.034033
     25 H4           8.3570     1.1740     0.9490 hc         1 PX9       0.038200
     26 H5           8.2020     1.4590    -0.7710 hc         1 PX9       0.038200
     27 H6           7.2550    -0.8390    -1.0720 hc         1 PX9       0.054700
     28 H7           7.4070    -1.1230     0.6570 hc         1 PX9       0.054700
     29 H8           5.8600     0.7780     1.1130 h1         1 PX9       0.031700
     30 H9           5.7140     1.0770    -0.6240 h1         1 PX9       0.031700
     31 H10          3.8400     1.7500     0.5840 ha         1 PX9       0.121500
     32 H11          1.4550     2.2100     0.6950 ha         1 PX9       0.121000
     33 H12          0.6040    -1.8970    -0.2170 ha         1 PX9       0.121000
     34 H13          2.9890    -2.3560    -0.3310 ha         1 PX9       0.121500
     35 H14         -1.3330    -0.8200    -0.9290 h1         1 PX9       0.031700
     36 H15         -1.3570    -1.2440     0.7860 h1         1 PX9       0.031700
     37 H16         -2.9230     0.6340     1.2450 hc         1 PX9       0.062700
     38 H17         -2.8370     1.1180    -0.4490 hc         1 PX9       0.062700
     39 H18         -3.8320    -1.0710    -1.1280 h1         1 PX9       0.031200
     40 H19         -3.8050    -1.6050     0.5490 h1         1 PX9       0.031200
     41 H21         -6.2950    -1.7010    -0.8660 h1         1 PX9       0.041200
     42 H22         -6.0190    -1.9940     0.8540 h1         1 PX9       0.041200
     43 H23         -8.3860    -1.4070     0.3600 h1         1 PX9       0.051200
     44 H24         -7.6190    -0.2890     1.5000 h1         1 PX9       0.051200
     45 H25         -7.2800     2.2030    -1.0850 h1         1 PX9       0.051200
     46 H26         -6.9490     1.8910     0.6260 h1         1 PX9       0.051200
     47 H27         -4.8940     1.7240    -0.6320 h1         1 PX9       0.041200
     48 H28         -5.5900     0.5730    -1.7760 h1         1 PX9       0.041200
@<TRIPOS>BOND
     1     1     2 1   
     2     1    22 1   
     3     1    23 1   
     4     1    24 1   
     5     2     3 1   
     6     2    25 1   
     7     2    26 1   
     8     3     4 1   
     9     3    27 1   
    10     3    28 1   
    11     4     5 1   
    12     4    29 1   
    13     4    30 1   
    14     5     6 1   
    15     6     7 ar  
    16     6    11 ar  
    17     7     8 ar  
    18     7    31 1   
    19     8     9 ar  
    20     8    32 1   
    21     9    10 ar  
    22     9    12 1   
    23    10    11 ar  
    24    10    33 1   
    25    11    34 1   
    26    12    13 1   
    27    13    14 1   
    28    13    35 1   
    29    13    36 1   
    30    14    15 1   
    31    14    37 1   
    32    14    38 1   
    33    15    16 1   
    34    15    39 1   
    35    15    40 1   
    36    16    17 1   
    37    16    21 1   
    38    17    18 1   
    39    17    41 1   
    40    17    42 1   
    41    18    19 1   
    42    18    43 1   
    43    18    44 1   
    44    19    20 1   
    45    20    21 1   
    46    20    45 1   
    47    20    46 1   
    48    21    47 1   
    49    21    48 1   
@<TRIPOS>SUBSTRUCTURE
     1 PX9         1 TEMP              0 ****  ****    0 ROOT
