@<TRIPOS>MOLECULE
PX9
   48    49     1     0     0
SMALL
No Charge or Current Charge


@<TRIPOS>ATOM
      1 C1           9.9540    -0.0240    -0.0600 c3         1 PX9      -0.088100
      2 C2           8.5860     0.6660     0.1040 c3         1 PX9      -0.074400
      3 C3           7.3950    -0.2990    -0.0870 c3         1 PX9      -0.083400
      4 C4           6.0290     0.3940     0.0770 c3         1 PX9       0.165600
      5 O5           5.0090    -0.6000    -0.1220 os         1 PX9      -0.351100
      6 C6           3.6640    -0.3000    -0.0420 ca         1 PX9       0.110100
      7 C9           3.1890     1.0000     0.2410 ca         1 PX9      -0.135000
      8 C10          1.8040     1.2420     0.3100 ca         1 PX9      -0.135000
      9 C11          0.8850     0.2000     0.0980 ca         1 PX9       0.108100
     10 C8           1.3610    -1.0990    -0.1860 ca         1 PX9      -0.135000
     11 C7           2.7450    -1.3410    -0.2540 ca         1 PX9      -0.135000
     12 O12         -0.4590     0.5010     0.1780 os         1 PX9      -0.350100
     13 C13         -1.4790    -0.4930    -0.0230 c3         1 PX9       0.165600
     14 C14         -2.8440     0.1990     0.1400 c3         1 PX9      -0.084400
     15 C15         -4.0240    -0.7770    -0.0600 c3         1 PX9       0.170800
     16 N16         -5.3600    -0.2020     0.2340 n3         1 PX9      -0.714600
     17 C18         -6.4340    -1.2450     0.2420 c6         1 PX9       0.125800
     18 C19         -7.8300    -0.6410     0.5750 c6         1 PX9       0.152600
     19 O20         -8.1440     0.4330    -0.3430 os         1 PX9      -0.449000
     20 C21         -7.1620     1.4950    -0.3130 c6         1 PX9       0.152600
     21 C17         -5.7480     0.9390    -0.6610 c6         1 PX9       0.125800
     22 H1          10.7670     0.6980     0.0850 hc         1 PX9       0.034033
     23 H2          10.0750    -0.8280     0.6770 hc         1 PX9       0.034033
     24 H3          10.0540    -0.4560    -1.0630 hc         1 PX9       0.034033
     25 H4           8.5320     1.1170     1.1030 hc         1 PX9       0.038200
     26 H5           8.5110     1.4850    -0.6220 hc         1 PX9       0.038200
     27 H6           7.4500    -0.7480    -1.0870 hc         1 PX9       0.054700
     28 H7           7.4710    -1.1170     0.6400 hc         1 PX9       0.054700
     29 H8           5.9560     0.8270     1.0840 h1         1 PX9       0.031700
     30 H9           5.9350     1.2000    -0.6620 h1         1 PX9       0.031700
     31 H10          3.8720     1.8280     0.4100 ha         1 PX9       0.121500
     32 H11          1.4400     2.2430     0.5280 ha         1 PX9       0.121000
     33 H12          0.6780    -1.9270    -0.3540 ha         1 PX9       0.121000
     34 H13          3.1090    -2.3420    -0.4720 ha         1 PX9       0.121500
     35 H14         -1.4060    -0.9260    -1.0290 h1         1 PX9       0.031700
     36 H15         -1.3860    -1.2990     0.7170 h1         1 PX9       0.031700
     37 H16         -2.9070     0.6380     1.1430 hc         1 PX9       0.062700
     38 H17         -2.9100     1.0180    -0.5840 hc         1 PX9       0.062700
     39 H18         -3.9970    -1.1550    -1.0910 h1         1 PX9       0.031200
     40 H19         -3.8550    -1.6380     0.6000 h1         1 PX9       0.031200
     41 H21         -6.4920    -1.7410    -0.7390 h1         1 PX9       0.041200
     42 H22         -6.2030    -2.0250     0.9830 h1         1 PX9       0.041200
     43 H23         -8.6030    -1.4190     0.4990 h1         1 PX9       0.051200
     44 H24         -7.8360    -0.2530     1.6040 h1         1 PX9       0.051200
     45 H25         -7.4470     2.2710    -1.0370 h1         1 PX9       0.051200
     46 H26         -7.1490     1.9490     0.6890 h1         1 PX9       0.051200
     47 H27         -5.0290     1.7650    -0.5740 h1         1 PX9       0.041200
     48 H28         -5.7450     0.6170    -1.7130 h1         1 PX9       0.041200
@<TRIPOS>BOND
     1     1     2 1   
     2     1    22 1   
     3     1    23 1   
     4     1    24 1   
     5     2     3 1   
     6     2    25 1   
     7     2    26 1   
     8     3     4 1   
     9     3    27 1   
    10     3    28 1   
    11     4     5 1   
    12     4    29 1   
    13     4    30 1   
    14     5     6 1   
    15     6     7 ar  
    16     6    11 ar  
    17     7     8 ar  
    18     7    31 1   
    19     8     9 ar  
    20     8    32 1   
    21     9    10 ar  
    22     9    12 1   
    23    10    11 ar  
    24    10    33 1   
    25    11    34 1   
    26    12    13 1   
    27    13    14 1   
    28    13    35 1   
    29    13    36 1   
    30    14    15 1   
    31    14    37 1   
    32    14    38 1   
    33    15    16 1   
    34    15    39 1   
    35    15    40 1   
    36    16    17 1   
    37    16    21 1   
    38    17    18 1   
    39    17    41 1   
    40    17    42 1   
    41    18    19 1   
    42    18    43 1   
    43    18    44 1   
    44    19    20 1   
    45    20    21 1   
    46    20    45 1   
    47    20    46 1   
    48    21    47 1   
    49    21    48 1   
@<TRIPOS>SUBSTRUCTURE
     1 PX9         1 TEMP              0 ****  ****    0 ROOT
