@<TRIPOS>MOLECULE
PXB
   44    46     1     0     0
SMALL
No Charge or Current Charge


@<TRIPOS>ATOM
      1 C1          -3.3620     3.1620    -1.4120 c3         1 PXB      -0.080100
      2 C2          -4.5260     2.1830    -1.1380 c3         1 PXB      -0.159400
      3 C4          -4.0230     0.7500    -0.9460 c          1 PXB       0.631100
      4 O6          -3.6500     0.0620    -1.8820 o          1 PXB      -0.548100
      5 N8          -4.0510     0.3070     0.3380 ns         1 PXB      -0.593300
      6 S12         -3.4960    -1.1580     0.9200 sy         1 PXB       1.183300
      7 O14         -3.6460    -1.0670     2.3760 o          1 PXB      -0.528000
      8 O16         -4.1750    -2.2020     0.1420 o          1 PXB      -0.528000
      9 C18         -1.7400    -1.1720     0.5130 ca         1 PXB      -0.296500
     10 C20         -0.8250    -0.4830     1.3330 ca         1 PXB      -0.003500
     11 C21          0.5400    -0.4700     1.0030 ca         1 PXB      -0.125000
     12 C22          1.0160    -1.1370    -0.1440 ca         1 PXB       0.060000
     13 C23          0.0930    -1.8290    -0.9530 ca         1 PXB      -0.125000
     14 C24         -1.2750    -1.8450    -0.6340 ca         1 PXB      -0.003500
     15 C31          2.4480    -1.1110    -0.4740 cc         1 PXB      -0.192000
     16 C33          3.1250    -2.2490    -0.8060 cd         1 PXB       0.213300
     17 C35          3.4660    -0.1590    -0.1950 cc         1 PXB       0.347500
     18 O37          4.4700    -2.0000    -0.8080 os         1 PXB      -0.064700
     19 N39          4.6840    -0.6420    -0.4050 nd         1 PXB      -0.353300
     20 C42          3.2700     1.2670     0.1350 ca         1 PXB      -0.146500
     21 C44          4.3320     2.0220     0.6890 ca         1 PXB      -0.078000
     22 C45          4.1760     3.3910     0.9700 ca         1 PXB      -0.117000
     23 C46          2.9660     4.0370     0.6770 ca         1 PXB      -0.095000
     24 C47          1.9180     3.3150     0.0870 ca         1 PXB      -0.117000
     25 C48          2.0720     1.9460    -0.1930 ca         1 PXB      -0.078000
     26 C55          2.6740    -3.6700    -1.0200 c3         1 PXB      -0.142400
     27 H1          -2.6540     3.1680    -0.5730 hc         1 PXB       0.045700
     28 H1A         -2.8170     2.8750    -2.3200 hc         1 PXB       0.045700
     29 H1B         -3.7410     4.1820    -1.5480 hc         1 PXB       0.045700
     30 H2          -5.0570     2.5240    -0.2420 hc         1 PXB       0.063700
     31 H2A         -5.2030     2.2060    -2.0010 hc         1 PXB       0.063700
     32 HN8         -4.3440     0.9190     1.0790 hn         1 PXB       0.344500
     33 H20         -1.1640     0.0440     2.2240 ha         1 PXB       0.140000
     34 H21          1.2340     0.0520     1.6580 ha         1 PXB       0.125000
     35 H23          0.4240    -2.3300    -1.8580 ha         1 PXB       0.125000
     36 H24         -1.9690    -2.3710    -1.2890 ha         1 PXB       0.140000
     37 H44          5.2830     1.5470     0.9250 ha         1 PXB       0.125000
     38 H45          4.9970     3.9510     1.4130 ha         1 PXB       0.116500
     39 H46          2.8460     5.0970     0.8920 ha         1 PXB       0.115000
     40 H47          0.9880     3.8180    -0.1660 ha         1 PXB       0.116500
     41 H48          1.2600     1.4300    -0.6960 ha         1 PXB       0.125000
     42 H55          2.3000    -3.8140    -2.0390 hc         1 PXB       0.068033
     43 H55A         3.5020    -4.3720    -0.8680 hc         1 PXB       0.068033
     44 H55B         1.8790    -3.9450    -0.3170 hc         1 PXB       0.068033
@<TRIPOS>BOND
     1     1     2 1   
     2     1    27 1   
     3     1    28 1   
     4     1    29 1   
     5     2     3 1   
     6     2    30 1   
     7     2    31 1   
     8     3     4 2   
     9     3     5 1   
    10     5     6 1   
    11     5    32 1   
    12     6     7 2   
    13     6     8 2   
    14     6     9 1   
    15     9    10 ar  
    16     9    14 ar  
    17    10    11 ar  
    18    10    33 1   
    19    11    12 ar  
    20    11    34 1   
    21    12    13 ar  
    22    12    15 1   
    23    13    14 ar  
    24    13    35 1   
    25    14    36 1   
    26    15    16 2   
    27    15    17 1   
    28    16    18 1   
    29    16    26 1   
    30    17    19 2   
    31    17    20 1   
    32    18    19 1   
    33    20    21 ar  
    34    20    25 ar  
    35    21    22 ar  
    36    21    37 1   
    37    22    23 ar  
    38    22    38 1   
    39    23    24 ar  
    40    23    39 1   
    41    24    25 ar  
    42    24    40 1   
    43    25    41 1   
    44    26    42 1   
    45    26    43 1   
    46    26    44 1   
@<TRIPOS>SUBSTRUCTURE
     1 PXB         1 TEMP              0 ****  ****    0 ROOT
