@<TRIPOS>MOLECULE
PXB
   44    46     1     0     0
SMALL
bcc


@<TRIPOS>ATOM
      1 C1          -3.9970     3.1050    -2.1570 c3         1 PXB      -0.080100
      2 C2          -4.1800     2.4700    -0.7910 c3         1 PXB      -0.159400
      3 C4          -3.7620     1.0240    -0.7450 c          1 PXB       0.698100
      4 O6          -3.3880     0.3810    -1.6970 o          1 PXB      -0.548100
      5 N8          -3.8370     0.4650     0.5130 ns         1 PXB      -0.660300
      6 S12         -3.3930    -1.1130     0.8560 sy         1 PXB       1.324900
      7 O14         -3.5740    -1.2220     2.2920 o          1 PXB      -0.598800
      8 O16         -4.0990    -2.0120    -0.0310 o          1 PXB      -0.598800
      9 C18         -1.6700    -1.1590     0.4850 ca         1 PXB      -0.296500
     10 C20         -0.7830    -0.5820     1.3860 ca         1 PXB      -0.021500
     11 C21          0.5700    -0.6060     1.1060 ca         1 PXB      -0.143000
     12 C22          1.0450    -1.2020    -0.0650 ca         1 PXB       0.060000
     13 C23          0.1340    -1.7770    -0.9500 ca         1 PXB      -0.143000
     14 C24         -1.2260    -1.7620    -0.6800 ca         1 PXB      -0.021500
     15 C31          2.4790    -1.2290    -0.3500 cc         1 PXB      -0.322600
     16 C33          3.2350    -2.2960    -0.7310 cd         1 PXB       0.323000
     17 C35          3.4310    -0.1710    -0.2400 cc         1 PXB       0.412800
     18 O37          4.5060    -1.9130    -0.8360 os         1 PXB      -0.109100
     19 N39          4.6270    -0.5910    -0.5380 nd         1 PXB      -0.353300
     20 C42          3.2110     1.2330     0.1270 ca         1 PXB      -0.146500
     21 C44          4.1150     1.8890     0.9620 ca         1 PXB      -0.096000
     22 C45          3.9170     3.2200     1.2970 ca         1 PXB      -0.135000
     23 C46          2.8170     3.9080     0.8020 ca         1 PXB      -0.113000
     24 C47          1.9160     3.2610    -0.0330 ca         1 PXB      -0.135000
     25 C48          2.1100     1.9290    -0.3690 ca         1 PXB      -0.096000
     26 C55          2.9140    -3.7140    -1.0050 c3         1 PXB      -0.142400
     27 H1          -2.9550     3.0870    -2.4730 hc         1 PXB       0.045700
     28 H1A         -4.5910     2.6020    -2.9190 hc         1 PXB       0.045700
     29 H1B         -4.3150     4.1460    -2.1210 hc         1 PXB       0.045700
     30 H2          -3.6110     3.0150    -0.0320 hc         1 PXB       0.063700
     31 H2A         -5.2250     2.5290    -0.4730 hc         1 PXB       0.063700
     32 HN8         -4.0760     1.0350     1.3160 hn         1 PXB       0.344500
     33 H20         -1.1310    -0.1200     2.3010 ha         1 PXB       0.158000
     34 H21          1.2630    -0.1680     1.8120 ha         1 PXB       0.143000
     35 H23          0.4820    -2.2210    -1.8730 ha         1 PXB       0.143000
     36 H24         -1.9170    -2.2100    -1.3790 ha         1 PXB       0.158000
     37 H44          4.9670     1.3520     1.3580 ha         1 PXB       0.143000
     38 H45          4.6220     3.7190     1.9500 ha         1 PXB       0.134500
     39 H46          2.6620     4.9450     1.0680 ha         1 PXB       0.133000
     40 H47          1.0610     3.7930    -0.4280 ha         1 PXB       0.134500
     41 H48          1.4090     1.4390    -1.0320 ha         1 PXB       0.143000
     42 H55          2.8510    -3.9010    -2.0790 hc         1 PXB       0.068033
     43 H55A         3.6760    -4.3760    -0.5950 hc         1 PXB       0.068033
     44 H55B         1.9550    -3.9760    -0.5620 hc         1 PXB       0.068033
@<TRIPOS>BOND
     1     1     2 1   
     2     1    27 1   
     3     1    28 1   
     4     1    29 1   
     5     2     3 1   
     6     2    30 1   
     7     2    31 1   
     8     3     4 2   
     9     3     5 1   
    10     5     6 1   
    11     5    32 1   
    12     6     7 2   
    13     6     8 2   
    14     6     9 1   
    15     9    10 ar  
    16     9    14 ar  
    17    10    11 ar  
    18    10    33 1   
    19    11    12 ar  
    20    11    34 1   
    21    12    13 ar  
    22    12    15 1   
    23    13    14 ar  
    24    13    35 1   
    25    14    36 1   
    26    15    16 2   
    27    15    17 1   
    28    16    18 1   
    29    16    26 1   
    30    17    19 2   
    31    17    20 1   
    32    18    19 1   
    33    20    21 ar  
    34    20    25 ar  
    35    21    22 ar  
    36    21    37 1   
    37    22    23 ar  
    38    22    38 1   
    39    23    24 ar  
    40    23    39 1   
    41    24    25 ar  
    42    24    40 1   
    43    25    41 1   
    44    26    42 1   
    45    26    43 1   
    46    26    44 1   
@<TRIPOS>SUBSTRUCTURE
     1 PXB         1 TEMP              0 ****  ****    0 ROOT
