@<TRIPOS>MOLECULE
PXC
   26    28     1     0     0
SMALL
abcg2


@<TRIPOS>ATOM
      1 OAA          4.6100     0.9440     0.7660 o          1 PXC      -0.720750
      2 OAB         -3.5530    -1.5950    -1.1930 o          1 PXC      -0.720750
      3 OAC          3.5800     1.6300    -1.0940 o          1 PXC      -0.720750
      4 OAD         -4.5900    -0.9870     0.6910 o          1 PXC      -0.720750
      5 CAE          2.4010    -2.7040     0.0540 ca         1 PXC      -0.116000
      6 CAF         -2.3900     2.6980     0.0950 ca         1 PXC      -0.116000
      7 CAG          3.2580    -1.5710     0.0560 ca         1 PXC      -0.149000
      8 CAH         -3.2470     1.5650     0.0560 ca         1 PXC      -0.149000
      9 CAI          1.0500    -2.5570     0.0080 ca         1 PXC      -0.115000
     10 CAJ         -1.0390     2.5530     0.0620 ca         1 PXC      -0.115000
     11 NAK          0.8480     1.1170    -0.0050 nb         1 PXC      -0.599000
     12 NAL         -0.8340    -1.1190    -0.0450 nb         1 PXC      -0.599000
     13 CAM          3.7370     0.8790    -0.1170 c          1 PXC       0.728600
     14 CAN         -3.7160    -0.8830    -0.1890 c          1 PXC       0.728600
     15 CAO          2.7750    -0.2970    -0.0210 ca         1 PXC      -0.076100
     16 CAP         -2.7610     0.2930    -0.0480 ca         1 PXC      -0.076100
     17 CAQ          0.4880    -1.2520    -0.0310 ca         1 PXC       0.218500
     18 CAR         -0.4750     1.2500    -0.0040 ca         1 PXC       0.218500
     19 CAS          1.3560    -0.1090    -0.0400 ca         1 PXC       0.256000
     20 CAT         -1.3420     0.1080    -0.0530 ca         1 PXC       0.256000
     21 HAE          2.8380    -3.6940     0.0930 ha         1 PXC       0.077000
     22 HAF         -2.8290     3.6860     0.1540 ha         1 PXC       0.077000
     23 HAG          4.3280    -1.7340     0.1010 ha         1 PXC       0.105000
     24 HAH         -4.3170     1.7260     0.0910 ha         1 PXC       0.105000
     25 HAI          0.3810    -3.4080     0.0070 ha         1 PXC       0.112000
     26 HAJ         -0.3710     3.4040     0.0920 ha         1 PXC       0.112000
@<TRIPOS>BOND
     1     1    13 1   
     2     2    14 1   
     3     3    13 1   
     4     4    14 1   
     5     5     7 ar  
     6     5     9 ar  
     7     5    21 1   
     8     6     8 ar  
     9     6    10 ar  
    10     6    22 1   
    11     7    15 ar  
    12     7    23 1   
    13     8    16 ar  
    14     8    24 1   
    15     9    17 ar  
    16     9    25 1   
    17    10    18 ar  
    18    10    26 1   
    19    11    18 ar  
    20    11    19 ar  
    21    12    17 ar  
    22    12    20 ar  
    23    13    15 1   
    24    14    16 1   
    25    15    19 ar  
    26    16    20 ar  
    27    17    19 ar  
    28    18    20 ar  
@<TRIPOS>SUBSTRUCTURE
     1 PXC         1 TEMP              0 ****  ****    0 ROOT
