@<TRIPOS>MOLECULE
PXC
   26    28     1     0     0
SMALL
No Charge or Current Charge


@<TRIPOS>ATOM
      1 OAA          4.1030     1.2580     1.1000 o          1 PXC      -0.720750
      2 OAB         -4.0880    -1.2620    -1.1400 o          1 PXC      -0.720750
      3 OAC          4.1160     1.2870    -1.0560 o          1 PXC      -0.720750
      4 OAD         -4.1020    -1.2910     1.0170 o          1 PXC      -0.720750
      5 CAE          2.4650    -2.7370    -0.0400 ca         1 PXC      -0.116000
      6 CAF         -2.4510     2.7330     0.0000 ca         1 PXC      -0.116000
      7 CAG          3.3120    -1.6230    -0.0200 ca         1 PXC      -0.149000
      8 CAH         -3.2980     1.6180    -0.0190 ca         1 PXC      -0.149000
      9 CAI          1.0750    -2.5560    -0.0460 ca         1 PXC      -0.115000
     10 CAJ         -1.0610     2.5510     0.0070 ca         1 PXC      -0.115000
     11 NAK          0.8520     1.1350     0.0000 nb         1 PXC      -0.599000
     12 NAL         -0.8380    -1.1400    -0.0400 nb         1 PXC      -0.599000
     13 CAM          3.7000     0.8620     0.0140 c          1 PXC       0.728600
     14 CAN         -3.6860    -0.8660    -0.0540 c          1 PXC       0.728600
     15 CAO          2.7740    -0.3180    -0.0070 ca         1 PXC      -0.076100
     16 CAP         -2.7590     0.3140    -0.0330 ca         1 PXC      -0.076100
     17 CAQ          0.5130    -1.2650    -0.0330 ca         1 PXC       0.218500
     18 CAR         -0.4990     1.2610    -0.0070 ca         1 PXC       0.218500
     19 CAS          1.3750    -0.1200    -0.0130 ca         1 PXC       0.256000
     20 CAT         -1.3610     0.1160    -0.0270 ca         1 PXC       0.256000
     21 HAE          2.8840    -3.7410    -0.0500 ha         1 PXC       0.077000
     22 HAF         -2.8700     3.7370     0.0110 ha         1 PXC       0.077000
     23 HAG          4.3910    -1.7630    -0.0160 ha         1 PXC       0.105000
     24 HAH         -4.3770     1.7590    -0.0240 ha         1 PXC       0.105000
     25 HAI          0.4230    -3.4250    -0.0620 ha         1 PXC       0.112000
     26 HAJ         -0.4090     3.4210     0.0220 ha         1 PXC       0.112000
@<TRIPOS>BOND
     1     1    13 1   
     2     2    14 1   
     3     3    13 1   
     4     4    14 1   
     5     5     7 ar  
     6     5     9 ar  
     7     5    21 1   
     8     6     8 ar  
     9     6    10 ar  
    10     6    22 1   
    11     7    15 ar  
    12     7    23 1   
    13     8    16 ar  
    14     8    24 1   
    15     9    17 ar  
    16     9    25 1   
    17    10    18 ar  
    18    10    26 1   
    19    11    18 ar  
    20    11    19 ar  
    21    12    17 ar  
    22    12    20 ar  
    23    13    15 1   
    24    14    16 1   
    25    15    19 ar  
    26    16    20 ar  
    27    17    19 ar  
    28    18    20 ar  
@<TRIPOS>SUBSTRUCTURE
     1 PXC         1 TEMP              0 ****  ****    0 ROOT
