@<TRIPOS>MOLECULE
PXD
   46    48     1     0     0
SMALL
abcg2


@<TRIPOS>ATOM
      1 FAE         -0.9860     2.8150    -2.4580 f          1 PXD      -0.106000
      2 CBC         -1.4630     2.7910    -1.1870 c3         1 PXD       0.190300
      3 FAF         -2.2120     1.6580    -1.0740 f          1 PXD      -0.106000
      4 CAN         -0.3370     2.7950    -0.1890 c3         1 PXD       0.104600
      5 OAU          0.4700     1.6690    -0.4370 os         1 PXD      -0.303100
      6 CAW          1.5040     1.4070     0.3560 ca         1 PXD       0.250100
      7 CAK          1.8980     2.2870     1.3660 ca         1 PXD      -0.202000
      8 CAJ          2.9540     1.9680     2.1860 ca         1 PXD      -0.022000
      9 CAL          3.6190     0.7610     2.0460 ca         1 PXD      -0.133000
     10 CAY          3.2530    -0.1340     1.0540 ca         1 PXD      -0.054300
     11 CBE          4.0320    -1.4340     1.0360 c3         1 PXD       0.356300
     12 FAH          4.9860    -1.4420     0.1030 f          1 PXD      -0.101000
     13 FAI          4.6590    -1.6260     2.2040 f          1 PXD      -0.101000
     14 FAG          3.2560    -2.5030     0.8660 f          1 PXD      -0.101000
     15 CBA          2.2070     0.2010     0.1690 ca         1 PXD      -0.241500
     16 SBF          1.7790    -0.8390    -1.2260 sy         1 PXD       1.154600
     17 OAC          1.0900    -0.0590    -2.2290 o          1 PXD      -0.513500
     18 OAD          2.9420    -1.5940    -1.6430 o          1 PXD      -0.513500
     19 NAR          0.7440    -1.9660    -0.5380 nu         1 PXD      -0.783300
     20 CAV         -0.5420    -1.5760    -0.1940 cc         1 PXD       0.715200
     21 NAQ         -0.7440    -0.7360     0.7950 nd         1 PXD      -0.562100
     22 NAP         -1.6370    -2.0350    -0.8230 nc         1 PXD      -0.377300
     23 CBB         -2.6100    -1.4170    -0.1860 cd         1 PXD      -0.016000
     24 NBD         -2.0770    -0.6180     0.7790 na         1 PXD       0.081900
     25 CAZ         -2.8460     0.1910     1.5620 cc         1 PXD       0.763800
     26 OAT         -2.1680     0.9250     2.4110 os         1 PXD      -0.436300
     27 CAB         -2.9190     1.7950     3.2610 c3         1 PXD       0.163900
     28 NAO         -4.1220     0.1940     1.4320 nd         1 PXD      -0.757000
     29 CAM         -4.7170    -0.6030     0.5020 cc         1 PXD       0.271900
     30 CAX         -4.0200    -1.4300    -0.3330 cd         1 PXD       0.101100
     31 OAS         -4.5010    -2.2420    -1.2780 os         1 PXD      -0.294100
     32 CAA         -5.9080    -2.2860    -1.4420 c3         1 PXD       0.141900
     33 H1          -2.1140     3.6530    -1.0360 h2         1 PXD       0.059700
     34 H2           0.2180     3.7320    -0.3030 h1         1 PXD       0.059700
     35 H3          -0.7590     2.7750     0.8210 h1         1 PXD       0.059700
     36 H4           1.3850     3.2260     1.5140 ha         1 PXD       0.120000
     37 H5           3.2600     2.6610     2.9580 ha         1 PXD       0.122000
     38 H6           4.4220     0.5340     2.7300 ha         1 PXD       0.139000
     39 H7           0.7920    -2.8540    -1.0310 hn         1 PXD       0.517000
     40 H8          -3.5820     1.2290     3.9140 h1         1 PXD       0.056367
     41 H9          -2.1830     2.3270     3.8560 h1         1 PXD       0.056367
     42 H10         -3.5050     2.5050     2.6790 h1         1 PXD       0.056367
     43 H11         -5.7960    -0.5350     0.4630 h4         1 PXD       0.036100
     44 H12         -6.1030    -2.9990    -2.2390 h1         1 PXD       0.047700
     45 H13         -6.4090    -2.6230    -0.5320 h1         1 PXD       0.047700
     46 H14         -6.3100    -1.3120    -1.7300 h1         1 PXD       0.047700
@<TRIPOS>BOND
     1     1     2 1   
     2     2     3 1   
     3     2     4 1   
     4     2    33 1   
     5     4     5 1   
     6     4    34 1   
     7     4    35 1   
     8     5     6 1   
     9     6     7 ar  
    10     6    15 ar  
    11     7     8 ar  
    12     7    36 1   
    13     8     9 ar  
    14     8    37 1   
    15     9    10 ar  
    16     9    38 1   
    17    10    11 1   
    18    10    15 ar  
    19    11    12 1   
    20    11    13 1   
    21    11    14 1   
    22    15    16 1   
    23    16    17 2   
    24    16    18 2   
    25    16    19 1   
    26    19    20 1   
    27    19    39 1   
    28    20    21 2   
    29    20    22 1   
    30    21    24 1   
    31    22    23 2   
    32    23    24 1   
    33    23    30 1   
    34    24    25 1   
    35    25    26 1   
    36    25    28 2   
    37    26    27 1   
    38    27    40 1   
    39    27    41 1   
    40    27    42 1   
    41    28    29 1   
    42    29    30 2   
    43    29    43 1   
    44    30    31 1   
    45    31    32 1   
    46    32    44 1   
    47    32    45 1   
    48    32    46 1   
@<TRIPOS>SUBSTRUCTURE
     1 PXD         1 TEMP              0 ****  ****    0 ROOT
