@<TRIPOS>MOLECULE
PXD
   46    48     1     0     0
SMALL
No Charge or Current Charge


@<TRIPOS>ATOM
      1 FAE         -0.8540     3.0350    -2.6280 f          1 PXD      -0.106000
      2 CBC         -1.3650     2.9730    -1.3760 c3         1 PXD       0.190300
      3 FAF         -2.0920     1.8340    -1.2890 f          1 PXD      -0.106000
      4 CAN         -0.2300     2.9700    -0.3280 c3         1 PXD       0.104600
      5 OAU          0.6330     1.8420    -0.5730 os         1 PXD      -0.303100
      6 CAW          1.6690     1.4800     0.2670 ca         1 PXD       0.250100
      7 CAK          2.0710     2.3640     1.2890 ca         1 PXD      -0.202000
      8 CAJ          3.0870     2.0110     2.1740 ca         1 PXD      -0.022000
      9 CAL          3.6940     0.7590     2.0700 ca         1 PXD      -0.133000
     10 CAY          3.3170    -0.1730     1.0710 ca         1 PXD      -0.054300
     11 CBE          4.0310    -1.5550     1.0990 c3         1 PXD       0.356300
     12 FAH          4.9630    -1.6620     0.1250 f          1 PXD      -0.101000
     13 FAI          4.6900    -1.7800     2.2610 f          1 PXD      -0.101000
     14 FAG          3.1780    -2.5950     0.9750 f          1 PXD      -0.101000
     15 CBA          2.3070     0.2160     0.1150 ca         1 PXD      -0.241500
     16 SBF          1.7830    -0.8690    -1.2700 sy         1 PXD       1.154600
     17 OAC          0.9920    -0.1540    -2.2740 o          1 PXD      -0.513500
     18 OAD          2.8820    -1.7370    -1.6920 o          1 PXD      -0.513500
     19 NAR          0.6960    -1.9560    -0.6390 nu         1 PXD      -0.783300
     20 CAV         -0.4920    -1.5490    -0.1850 cc         1 PXD       0.715200
     21 NAQ         -0.6360    -0.7240     0.8250 nd         1 PXD      -0.562100
     22 NAP         -1.5920    -2.0420    -0.7980 nc         1 PXD      -0.377300
     23 CBB         -2.5440    -1.4380    -0.1230 cd         1 PXD      -0.016000
     24 NBD         -2.0160    -0.6260     0.8630 na         1 PXD       0.081900
     25 CAZ         -2.8690     0.1370     1.6980 cc         1 PXD       0.763800
     26 OAT         -2.3630     0.9740     2.6650 os         1 PXD      -0.436300
     27 CAB         -3.2380     1.7710     3.4870 c3         1 PXD       0.163900
     28 NAO         -4.2030     0.0610     1.5330 nd         1 PXD      -0.757000
     29 CAM         -4.7080    -0.7320     0.5830 cc         1 PXD       0.271900
     30 CAX         -3.9610    -1.5150    -0.2910 cd         1 PXD       0.101100
     31 OAS         -4.5100    -2.3170    -1.2670 os         1 PXD      -0.294100
     32 CAA         -5.9360    -2.3920    -1.4460 c3         1 PXD       0.141900
     33 H1          -2.0270     3.8320    -1.2160 h2         1 PXD       0.059700
     34 H2           0.3280     3.9120    -0.4030 h1         1 PXD       0.059700
     35 H3          -0.6740     2.9070     0.6740 h1         1 PXD       0.059700
     36 H4           1.6090     3.3390     1.4120 ha         1 PXD       0.120000
     37 H5           3.3960     2.7030     2.9550 ha         1 PXD       0.122000
     38 H6           4.4720     0.5230     2.7930 ha         1 PXD       0.139000
     39 H7           0.5650    -2.6090    -1.3900 hn         1 PXD       0.517000
     40 H8          -3.9210     1.1360     4.0660 h1         1 PXD       0.056367
     41 H9          -2.6530     2.3710     4.1950 h1         1 PXD       0.056367
     42 H10         -3.8350     2.4580     2.8740 h1         1 PXD       0.056367
     43 H11         -5.7890    -0.6940     0.5660 h4         1 PXD       0.036100
     44 H12         -6.1790    -3.0780    -2.2670 h1         1 PXD       0.047700
     45 H13         -6.4250    -2.7650    -0.5370 h1         1 PXD       0.047700
     46 H14         -6.3520    -1.4070    -1.6920 h1         1 PXD       0.047700
@<TRIPOS>BOND
     1     1     2 1   
     2     2     3 1   
     3     2     4 1   
     4     2    33 1   
     5     4     5 1   
     6     4    34 1   
     7     4    35 1   
     8     5     6 1   
     9     6     7 ar  
    10     6    15 ar  
    11     7     8 ar  
    12     7    36 1   
    13     8     9 ar  
    14     8    37 1   
    15     9    10 ar  
    16     9    38 1   
    17    10    11 1   
    18    10    15 ar  
    19    11    12 1   
    20    11    13 1   
    21    11    14 1   
    22    15    16 1   
    23    16    17 2   
    24    16    18 2   
    25    16    19 1   
    26    19    20 1   
    27    19    39 1   
    28    20    21 2   
    29    20    22 1   
    30    21    24 1   
    31    22    23 2   
    32    23    24 1   
    33    23    30 1   
    34    24    25 1   
    35    25    26 1   
    36    25    28 2   
    37    26    27 1   
    38    27    40 1   
    39    27    41 1   
    40    27    42 1   
    41    28    29 1   
    42    29    30 2   
    43    29    43 1   
    44    30    31 1   
    45    31    32 1   
    46    32    44 1   
    47    32    45 1   
    48    32    46 1   
@<TRIPOS>SUBSTRUCTURE
     1 PXD         1 TEMP              0 ****  ****    0 ROOT
