@<TRIPOS>MOLECULE
PXH
   42    43     1     0     0
SMALL
No Charge or Current Charge


@<TRIPOS>ATOM
      1 O8           0.4940    -2.2350    -1.8700 o          1 PXH      -0.541100
      2 C7           0.1230    -1.7210    -0.8190 c          1 PXH       0.601900
      3 N4          -2.5790    -0.7570    -1.1320 n7         1 PXH      -0.814400
      4 C3          -3.9730    -0.5220    -0.5800 c5         1 PXH       0.027500
      5 C11         -4.4620    -1.4490     0.6160 c          1 PXH       0.736000
      6 O13         -5.6300    -1.8170     0.6260 o          1 PXH      -0.717500
      7 O12         -3.6570    -1.8760     1.4370 o          1 PXH      -0.717500
      8 C2          -4.0430     1.0110    -0.1990 c5         1 PXH       0.116000
      9 C10         -4.5310     1.3480     1.2370 c3         1 PXH      -0.068600
     10 C9          -4.8960     1.8140    -1.2110 c3         1 PXH      -0.068600
     11 S1          -2.2870     1.6020    -0.3530 ss         1 PXH      -0.576000
     12 C5          -1.6560    -0.1180    -0.1970 c5         1 PXH       0.366500
     13 C6          -0.1950    -0.2330    -0.6740 c3         1 PXH      -0.226700
     14 C17          3.3420     0.8510     0.8370 c3         1 PXH      -0.005100
     15 C14          0.8310     0.4400     0.2780 c3         1 PXH       0.181300
     16 O14          0.5900     1.8470     0.2830 oh         1 PXH      -0.635000
     17 C1           4.7640     0.5290     0.4600 cc         1 PXH      -0.187300
     18 C4           5.6480     1.3140    -0.2360 cd         1 PXH      -0.145000
     19 C8           6.9210     0.7120    -0.4210 cd         1 PXH      -0.133000
     20 C12          7.0200    -0.5380     0.1340 cc         1 PXH      -0.250000
     21 S13          5.5100    -1.0040     0.9140 ss         1 PXH       0.185000
     22 H1           0.0010    -2.3300     0.1050 h4         1 PXH       0.001200
     23 H2          -2.4900    -0.2380    -2.0090 hn         1 PXH       0.380000
     24 H4          -4.6900    -0.7250    -1.3870 h1         1 PXH       0.059700
     25 H6          -3.9010     0.8760     1.9990 hc         1 PXH       0.033533
     26 H7          -4.5010     2.4290     1.4200 hc         1 PXH       0.033533
     27 H8          -5.5640     1.0180     1.3970 hc         1 PXH       0.033533
     28 H9          -5.9480     1.5050    -1.1740 hc         1 PXH       0.033533
     29 H10         -4.8570     2.8900    -1.0060 hc         1 PXH       0.033533
     30 H11         -4.5420     1.6610    -2.2380 hc         1 PXH       0.033533
     31 H12         -1.7630    -0.4870     0.8360 h2         1 PXH       0.134700
     32 H13         -0.0920     0.2180    -1.6690 hc         1 PXH       0.070700
     33 H14          2.4830     0.5860    -1.1370 hc         1 PXH       0.049700
     34 H15          2.5190    -0.8720    -0.1530 hc         1 PXH       0.049700
     35 H16          3.2050     1.9390     0.8450 hc         1 PXH       0.059700
     36 H17          3.1470     0.5070     1.8600 hc         1 PXH       0.059700
     37 H18          0.6840     0.0320     1.2900 h1         1 PXH       0.076700
     38 H19         -0.3680     1.9590     0.0630 ho         1 PXH       0.443000
     39 H20          5.3980     2.3020    -0.6110 ha         1 PXH       0.132000
     40 H21          7.7370     1.1940    -0.9500 ha         1 PXH       0.126000
     41 H22          7.8610    -1.2190     0.1460 h4         1 PXH       0.143000
     42 C15          2.3140     0.2040    -0.1220 c3         1 PXH      -0.115400
@<TRIPOS>BOND
     1     1     2 2   
     2     2    13 1   
     3     2    22 1   
     4     3     4 1   
     5     3    12 1   
     6     3    23 1   
     7     4     5 1   
     8     4     8 1   
     9     4    24 1   
    10     5     6 1   
    11     5     7 1   
    12     8     9 1   
    13     8    10 1   
    14     8    11 1   
    15     9    25 1   
    16     9    26 1   
    17     9    27 1   
    18    10    28 1   
    19    10    29 1   
    20    10    30 1   
    21    11    12 1   
    22    12    13 1   
    23    12    31 1   
    24    13    15 1   
    25    13    32 1   
    26    14    17 1   
    27    14    35 1   
    28    14    36 1   
    29    14    42 1   
    30    15    16 1   
    31    15    37 1   
    32    15    42 1   
    33    16    38 1   
    34    17    18 2   
    35    17    21 1   
    36    18    19 1   
    37    18    39 1   
    38    19    20 2   
    39    19    40 1   
    40    20    21 1   
    41    20    41 1   
    42    33    42 1   
    43    34    42 1   
@<TRIPOS>SUBSTRUCTURE
     1 PXH         1 TEMP              0 ****  ****    0 ROOT
