@<TRIPOS>MOLECULE
PXH
   42    43     1     0     0
SMALL
abcg2


@<TRIPOS>ATOM
      1 O8           0.2120    -2.0690    -1.9840 o          1 PXH      -0.541100
      2 C7          -0.0190    -1.7230    -0.8520 c          1 PXH       0.601900
      3 N4          -2.6120    -0.9480    -0.6020 n7         1 PXH      -0.814400
      4 C3          -3.9620    -0.5170    -0.2680 c5         1 PXH       0.027500
      5 C11         -4.5310    -1.2200     0.9830 c          1 PXH       0.736000
      6 O13         -5.7680    -1.3730     0.9890 o          1 PXH      -0.717500
      7 O12         -3.7350    -1.5700     1.8740 o          1 PXH      -0.717500
      8 C2          -3.9480     1.0400    -0.1590 c5         1 PXH       0.116000
      9 C10         -5.0350     1.6250     0.7340 c3         1 PXH      -0.068600
     10 C9          -4.0500     1.6540    -1.5560 c3         1 PXH      -0.068600
     11 S1          -2.3000     1.4220     0.5570 ss         1 PXH      -0.576000
     12 C5          -1.6500    -0.2860     0.2380 c5         1 PXH       0.366500
     13 C6          -0.2670    -0.3020    -0.4130 c3         1 PXH      -0.226700
     14 C17          3.3210     0.5260     0.9040 c3         1 PXH      -0.005100
     15 C14          0.8360     0.1180     0.5780 c3         1 PXH       0.181300
     16 O14          0.5280     1.3390     1.2070 oh         1 PXH      -0.635000
     17 C1           4.6810     0.4910     0.2850 cc         1 PXH      -0.187300
     18 C4           5.4770     1.5400    -0.0670 cd         1 PXH      -0.145000
     19 C8           6.7070     1.1390    -0.6630 cd         1 PXH      -0.133000
     20 C12          6.8250    -0.2120    -0.7570 cc         1 PXH      -0.250000
     21 S13          5.4430    -1.0040    -0.1200 ss         1 PXH       0.185000
     22 H1          -0.0530    -2.4600    -0.0290 h4         1 PXH       0.001200
     23 H2          -2.4370    -0.6980    -1.5700 hn         1 PXH       0.380000
     24 H4          -4.6070    -0.7830    -1.1100 h1         1 PXH       0.059700
     25 H6          -4.9340     1.2990     1.7670 hc         1 PXH       0.033533
     26 H7          -4.9900     2.7160     0.7230 hc         1 PXH       0.033533
     27 H8          -6.0230     1.3300     0.3770 hc         1 PXH       0.033533
     28 H9          -5.0410     1.4720    -1.9790 hc         1 PXH       0.033533
     29 H10         -3.8910     2.7330    -1.5260 hc         1 PXH       0.033533
     30 H11         -3.3110     1.2340    -2.2400 hc         1 PXH       0.033533
     31 H12         -1.6080    -0.7930     1.2000 h2         1 PXH       0.134700
     32 H13         -0.2580     0.3520    -1.2930 hc         1 PXH       0.070700
     33 H14          2.2080     0.8500    -0.9210 hc         1 PXH       0.049700
     34 H15          2.4320    -0.8360    -0.5040 hc         1 PXH       0.049700
     35 H16          3.1520     1.5320     1.2890 hc         1 PXH       0.059700
     36 H17          3.2860    -0.1490     1.7650 hc         1 PXH       0.059700
     37 H18          0.8560    -0.6210     1.3880 h1         1 PXH       0.076700
     38 H19          0.5170     2.0350     0.5400 ho         1 PXH       0.443000
     39 H20          5.1920     2.5700     0.0970 ha         1 PXH       0.132000
     40 H21          7.4660     1.8290    -1.0030 ha         1 PXH       0.126000
     41 H22          7.6470    -0.7840    -1.1600 h4         1 PXH       0.143000
     42 C15          2.2110     0.1480    -0.0800 c3         1 PXH      -0.115400
@<TRIPOS>BOND
     1     1     2 2   
     2     2    13 1   
     3     2    22 1   
     4     3     4 1   
     5     3    12 1   
     6     3    23 1   
     7     4     5 1   
     8     4     8 1   
     9     4    24 1   
    10     5     6 1   
    11     5     7 1   
    12     8     9 1   
    13     8    10 1   
    14     8    11 1   
    15     9    25 1   
    16     9    26 1   
    17     9    27 1   
    18    10    28 1   
    19    10    29 1   
    20    10    30 1   
    21    11    12 1   
    22    12    13 1   
    23    12    31 1   
    24    13    15 1   
    25    13    32 1   
    26    14    17 1   
    27    14    35 1   
    28    14    36 1   
    29    14    42 1   
    30    15    16 1   
    31    15    37 1   
    32    15    42 1   
    33    16    38 1   
    34    17    18 2   
    35    17    21 1   
    36    18    19 1   
    37    18    39 1   
    38    19    20 2   
    39    19    40 1   
    40    20    21 1   
    41    20    41 1   
    42    33    42 1   
    43    34    42 1   
@<TRIPOS>SUBSTRUCTURE
     1 PXH         1 TEMP              0 ****  ****    0 ROOT
