@<TRIPOS>MOLECULE
PXI
   75    76     1     0     0
SMALL
No Charge or Current Charge


@<TRIPOS>ATOM
      1 C1           4.1100     3.7170    -0.8950 c3         1 PXI      -0.086100
      2 C2           4.3720     2.6930     0.2290 c3         1 PXI      -0.094400
      3 C3           3.1740     1.7610     0.5620 c3         1 PXI       0.193300
      4 O1           2.9510     0.8570    -0.5380 os         1 PXI      -0.476100
      5 C4           2.0090     1.1500    -1.4970 c          1 PXI       0.604100
      6 O2           1.3710     2.1930    -1.5490 o          1 PXI      -0.460000
      7 C5           1.6260    -0.1360    -2.2420 c3         1 PXI      -0.126700
      8 C6           1.1450     0.0970    -3.6970 c3         1 PXI      -0.071100
      9 C7           0.6550    -0.9580    -1.3350 c3         1 PXI       0.190300
     10 O3          -0.6830    -0.4750    -1.5750 os         1 PXI      -0.459000
     11 C8          -1.4700    -0.0840    -0.4310 c6         1 PXI       0.349300
     12 O4          -0.9270     1.1220     0.1330 os         1 PXI      -0.480000
     13 C9          -1.5840     1.5410     1.3420 c6         1 PXI       0.185300
     14 C10         -0.8360     2.7950     1.8560 c3         1 PXI      -0.086100
     15 C11         -3.0790     1.8310     1.0580 c6         1 PXI      -0.148400
     16 C12         -3.7730     0.5990     0.4030 c6         1 PXI       0.192500
     17 N1          -5.2360     0.8360     0.1330 n3         1 PXI      -0.709600
     18 C13         -6.0610     0.9620     1.3560 c3         1 PXI       0.160100
     19 C14         -5.5410     1.8890    -0.8680 c3         1 PXI       0.160100
     20 C15         -2.9510     0.1510    -0.8600 c6         1 PXI       0.160300
     21 O5          -3.4990    -1.0310    -1.4980 oh         1 PXI      -0.694000
     22 C16          0.6400    -2.5200    -1.5180 c3         1 PXI      -0.064700
     23 C17          2.0230    -3.1540    -1.8330 c3         1 PXI      -0.090100
     24 C18         -0.0630    -3.3060    -0.3550 c3         1 PXI      -0.068400
     25 C19          0.7000    -3.4410     1.0120 c3         1 PXI      -0.155700
     26 C20          0.0930    -4.5660     1.8860 c3         1 PXI      -0.084100
     27 C21          0.7780    -2.1210     1.8180 c          1 PXI       0.570300
     28 O6          -0.2060    -1.6650     2.3870 o          1 PXI      -0.529100
     29 C22          2.0640    -1.3570     1.7660 ce         1 PXI      -0.310200
     30 C23          2.1620    -0.0320     2.0520 c2         1 PXI      -0.133200
     31 C24          3.3730     0.8760     1.8380 c3         1 PXI      -0.038500
     32 C25          4.7090     0.0870     1.8590 c3         1 PXI      -0.086100
     33 H1C1         3.9620     3.2150    -1.8580 hc         1 PXI       0.039700
     34 H1C2         3.2220     4.3210    -0.6740 hc         1 PXI       0.039700
     35 H1C3         4.9670     4.3940    -0.9990 hc         1 PXI       0.039700
     36 H2C1         5.2440     2.0900    -0.0480 hc         1 PXI       0.046700
     37 H2C2         4.6460     3.2450     1.1370 hc         1 PXI       0.046700
     38 H3           2.2870     2.3820     0.7460 h1         1 PXI       0.059700
     39 H5           2.5650    -0.6950    -2.2830 hc         1 PXI       0.073700
     40 H6C1         1.9250     0.6000    -4.2820 hc         1 PXI       0.046367
     41 H6C2         0.9140    -0.8560    -4.1870 hc         1 PXI       0.046367
     42 H6C3         0.2460     0.7250    -3.7230 hc         1 PXI       0.046367
     43 H7           0.9450    -0.7440    -0.3070 h1         1 PXI       0.053700
     44 H8          -1.4430    -0.8810     0.3240 h2         1 PXI       0.039700
     45 H9          -1.4940     0.7430     2.0930 h1         1 PXI       0.030700
     46 H101        -0.8830     3.6130     1.1270 hc         1 PXI       0.046367
     47 H102        -1.2750     3.1560     2.7930 hc         1 PXI       0.046367
     48 H103         0.2200     2.5790     2.0470 hc         1 PXI       0.046367
     49 H111        -3.5750     2.0970     2.0000 hc         1 PXI       0.055700
     50 H112        -3.1560     2.7070     0.4010 hc         1 PXI       0.055700
     51 H12         -3.6920    -0.2300     1.1230 h1         1 PXI       0.070700
     52 H131        -7.1300     0.9350     1.1040 h1         1 PXI       0.029033
     53 H132        -5.8580     0.1360     2.0500 h1         1 PXI       0.029033
     54 H133        -5.8600     1.9090     1.8760 h1         1 PXI       0.029033
     55 H141        -5.0160     1.7070    -1.8140 h1         1 PXI       0.029033
     56 H142        -6.6170     1.9060    -1.0880 h1         1 PXI       0.029033
     57 H143        -5.2580     2.8830    -0.4980 h1         1 PXI       0.029033
     58 H15         -2.9460     0.9820    -1.5800 h1         1 PXI       0.049700
     59 HA          -2.8240    -1.3070    -2.1600 ho         1 PXI       0.507000
     60 H16          0.0310    -2.7070    -2.4120 hc         1 PXI       0.060700
     61 H171         2.7820    -2.8370    -1.1080 hc         1 PXI       0.038033
     62 H172         1.9650    -4.2490    -1.8120 hc         1 PXI       0.038033
     63 H173         2.3640    -2.8730    -2.8360 hc         1 PXI       0.038033
     64 H181        -1.0630    -2.8980    -0.1760 hc         1 PXI       0.054200
     65 H182        -0.2440    -4.3210    -0.7310 hc         1 PXI       0.054200
     66 H19          1.7260    -3.7430     0.7790 hc         1 PXI       0.057700
     67 H201         0.1350    -5.5300     1.3640 hc         1 PXI       0.042700
     68 H202         0.6490    -4.6680     2.8260 hc         1 PXI       0.042700
     69 H203        -0.9550    -4.3540     2.1280 hc         1 PXI       0.042700
     70 H22          2.9060    -1.8920     1.3340 ha         1 PXI       0.188000
     71 H23          1.2860     0.5020     2.4250 ha         1 PXI       0.183000
     72 H24          3.4140     1.5660     2.6900 hc         1 PXI       0.063700
     73 H251         4.8200    -0.5310     0.9590 hc         1 PXI       0.040700
     74 H252         5.5670     0.7660     1.9150 hc         1 PXI       0.040700
     75 H253         4.7540    -0.5700     2.7360 hc         1 PXI       0.040700
@<TRIPOS>BOND
     1     1     2 1   
     2     1    33 1   
     3     1    34 1   
     4     1    35 1   
     5     2     3 1   
     6     2    36 1   
     7     2    37 1   
     8     3     4 1   
     9     3    31 1   
    10     3    38 1   
    11     4     5 1   
    12     5     6 2   
    13     5     7 1   
    14     7     8 1   
    15     7     9 1   
    16     7    39 1   
    17     8    40 1   
    18     8    41 1   
    19     8    42 1   
    20     9    10 1   
    21     9    22 1   
    22     9    43 1   
    23    10    11 1   
    24    11    12 1   
    25    11    20 1   
    26    11    44 1   
    27    12    13 1   
    28    13    14 1   
    29    13    15 1   
    30    13    45 1   
    31    14    46 1   
    32    14    47 1   
    33    14    48 1   
    34    15    16 1   
    35    15    49 1   
    36    15    50 1   
    37    16    17 1   
    38    16    20 1   
    39    16    51 1   
    40    17    18 1   
    41    17    19 1   
    42    18    52 1   
    43    18    53 1   
    44    18    54 1   
    45    19    55 1   
    46    19    56 1   
    47    19    57 1   
    48    20    21 1   
    49    20    58 1   
    50    21    59 1   
    51    22    23 1   
    52    22    24 1   
    53    22    60 1   
    54    23    61 1   
    55    23    62 1   
    56    23    63 1   
    57    24    25 1   
    58    24    64 1   
    59    24    65 1   
    60    25    26 1   
    61    25    27 1   
    62    25    66 1   
    63    26    67 1   
    64    26    68 1   
    65    26    69 1   
    66    27    28 2   
    67    27    29 1   
    68    29    30 2   
    69    29    70 1   
    70    30    31 1   
    71    30    71 1   
    72    31    32 1   
    73    31    72 1   
    74    32    73 1   
    75    32    74 1   
    76    32    75 1   
@<TRIPOS>SUBSTRUCTURE
     1 PXI         1 TEMP              0 ****  ****    0 ROOT
