@<TRIPOS>MOLECULE
PXI
   75    76     1     0     0
SMALL
abcg2


@<TRIPOS>ATOM
      1 C1           4.1610     3.6770    -0.3230 c3         1 PXI      -0.086100
      2 C2           4.3370     2.4440     0.5520 c3         1 PXI      -0.094400
      3 C3           3.1000     1.5750     0.7490 c3         1 PXI       0.193300
      4 O1           2.8010     0.7680    -0.4020 os         1 PXI      -0.476100
      5 C4           1.9580     1.1780    -1.3540 c          1 PXI       0.604100
      6 O2           1.6440     2.3240    -1.5300 o          1 PXI      -0.460000
      7 C5           1.4830    -0.0080    -2.1690 c3         1 PXI      -0.126700
      8 C6           0.8250     0.4170    -3.4720 c3         1 PXI      -0.071100
      9 C7           0.5920    -0.9330    -1.2930 c3         1 PXI       0.190300
     10 O3          -0.7760    -0.5930    -1.4500 os         1 PXI      -0.459000
     11 C8          -1.3930     0.0600    -0.4020 c6         1 PXI       0.349300
     12 O4          -0.9520     1.3860    -0.3710 os         1 PXI      -0.480000
     13 C9          -1.4900     2.1100     0.7240 c6         1 PXI       0.185300
     14 C10         -0.8800     3.4960     0.7190 c3         1 PXI      -0.086100
     15 C11         -3.0100     2.1390     0.6280 c6         1 PXI      -0.148400
     16 C12         -3.5870     0.7200     0.5340 c6         1 PXI       0.192500
     17 N1          -5.0350     0.6320     0.4620 n3         1 PXI      -0.709600
     18 C13         -5.6810     0.9870     1.7050 c3         1 PXI       0.160100
     19 C14         -5.6430     1.3070    -0.6640 c3         1 PXI       0.160100
     20 C15         -2.9060    -0.0140    -0.6190 c6         1 PXI       0.160300
     21 O5          -3.3530    -1.3450    -0.6400 oh         1 PXI      -0.694000
     22 C16          0.7330    -2.4360    -1.5860 c3         1 PXI      -0.064700
     23 C17          2.1820    -2.8900    -1.7550 c3         1 PXI      -0.090100
     24 C18          0.0090    -3.2970    -0.5310 c3         1 PXI      -0.068400
     25 C19          0.7090    -3.5690     0.8220 c3         1 PXI      -0.155700
     26 C20         -0.0090    -4.7120     1.5390 c3         1 PXI      -0.084100
     27 C21          0.7460    -2.3410     1.7180 c          1 PXI       0.570300
     28 O6          -0.2420    -1.9780     2.3280 o          1 PXI      -0.529100
     29 C22          2.0190    -1.5940     1.7710 ce         1 PXI      -0.310200
     30 C23          2.0610    -0.2830     2.0220 c2         1 PXI      -0.133200
     31 C24          3.2790     0.5830     1.9220 c3         1 PXI      -0.038500
     32 C25          4.5800    -0.2070     1.8510 c3         1 PXI      -0.086100
     33 H1C1         4.0000     3.4250    -1.3690 hc         1 PXI       0.039700
     34 H1C2         3.3200     4.2880     0.0080 hc         1 PXI       0.039700
     35 H1C3         5.0590     4.2940    -0.2690 hc         1 PXI       0.039700
     36 H2C1         5.1520     1.8310     0.1590 hc         1 PXI       0.046700
     37 H2C2         4.6550     2.7640     1.5480 hc         1 PXI       0.046700
     38 H3           2.2390     2.2180     0.9600 h1         1 PXI       0.059700
     39 H5           2.3890    -0.5660    -2.4130 hc         1 PXI       0.073700
     40 H6C1         1.5400     0.9400    -4.1070 hc         1 PXI       0.046367
     41 H6C2         0.4730    -0.4530    -4.0270 hc         1 PXI       0.046367
     42 H6C3        -0.0240     1.0760    -3.3040 hc         1 PXI       0.046367
     43 H7           0.8880    -0.7810    -0.2560 h1         1 PXI       0.053700
     44 H8          -1.1510    -0.4260     0.5600 h2         1 PXI       0.039700
     45 H9          -1.2100     1.6030     1.6620 h1         1 PXI       0.030700
     46 H101        -1.1250     4.0290    -0.2010 hc         1 PXI       0.046367
     47 H102        -1.2650     4.0730     1.5600 hc         1 PXI       0.046367
     48 H103         0.2050     3.4530     0.8090 hc         1 PXI       0.046367
     49 H111        -3.4120     2.6500     1.5060 hc         1 PXI       0.055700
     50 H112        -3.3000     2.7290    -0.2470 hc         1 PXI       0.055700
     51 H12         -3.3000     0.1910     1.4540 h1         1 PXI       0.070700
     52 H131        -6.7440     0.7470     1.6480 h1         1 PXI       0.029033
     53 H132        -5.2540     0.4100     2.5280 h1         1 PXI       0.029033
     54 H133        -5.6030     2.0520     1.9710 h1         1 PXI       0.029033
     55 H141        -5.2310     0.9480    -1.6070 h1         1 PXI       0.029033
     56 H142        -6.7110     1.0870    -0.6780 h1         1 PXI       0.029033
     57 H143        -5.5370     2.4010    -0.6480 h1         1 PXI       0.029033
     58 H15         -3.1280     0.4970    -1.5690 h1         1 PXI       0.049700
     59 HA          -2.9180    -1.7930    -1.3720 ho         1 PXI       0.507000
     60 H16          0.2180    -2.6320    -2.5340 hc         1 PXI       0.060700
     61 H171         2.8340    -2.5050    -0.9690 hc         1 PXI       0.038033
     62 H172         2.2450    -3.9790    -1.7280 hc         1 PXI       0.038033
     63 H173         2.6020    -2.5720    -2.7090 hc         1 PXI       0.038033
     64 H181        -0.9930    -2.9070    -0.3370 hc         1 PXI       0.054200
     65 H182        -0.1470    -4.2800    -0.9850 hc         1 PXI       0.054200
     66 H19          1.7380    -3.8810     0.6250 hc         1 PXI       0.057700
     67 H201         0.0100    -5.6110     0.9220 hc         1 PXI       0.042700
     68 H202         0.4710    -4.9520     2.4890 hc         1 PXI       0.042700
     69 H203        -1.0500    -4.4630     1.7400 hc         1 PXI       0.042700
     70 H22          2.9140    -2.1330     1.4850 ha         1 PXI       0.188000
     71 H23          1.1310     0.2310     2.2560 ha         1 PXI       0.183000
     72 H24          3.3000     1.2090     2.8220 hc         1 PXI       0.063700
     73 H251         4.6710    -0.7650     0.9190 hc         1 PXI       0.040700
     74 H252         5.4440     0.4500     1.9320 hc         1 PXI       0.040700
     75 H253         4.6420    -0.9190     2.6750 hc         1 PXI       0.040700
@<TRIPOS>BOND
     1     1     2 1   
     2     1    33 1   
     3     1    34 1   
     4     1    35 1   
     5     2     3 1   
     6     2    36 1   
     7     2    37 1   
     8     3     4 1   
     9     3    31 1   
    10     3    38 1   
    11     4     5 1   
    12     5     6 2   
    13     5     7 1   
    14     7     8 1   
    15     7     9 1   
    16     7    39 1   
    17     8    40 1   
    18     8    41 1   
    19     8    42 1   
    20     9    10 1   
    21     9    22 1   
    22     9    43 1   
    23    10    11 1   
    24    11    12 1   
    25    11    20 1   
    26    11    44 1   
    27    12    13 1   
    28    13    14 1   
    29    13    15 1   
    30    13    45 1   
    31    14    46 1   
    32    14    47 1   
    33    14    48 1   
    34    15    16 1   
    35    15    49 1   
    36    15    50 1   
    37    16    17 1   
    38    16    20 1   
    39    16    51 1   
    40    17    18 1   
    41    17    19 1   
    42    18    52 1   
    43    18    53 1   
    44    18    54 1   
    45    19    55 1   
    46    19    56 1   
    47    19    57 1   
    48    20    21 1   
    49    20    58 1   
    50    21    59 1   
    51    22    23 1   
    52    22    24 1   
    53    22    60 1   
    54    23    61 1   
    55    23    62 1   
    56    23    63 1   
    57    24    25 1   
    58    24    64 1   
    59    24    65 1   
    60    25    26 1   
    61    25    27 1   
    62    25    66 1   
    63    26    67 1   
    64    26    68 1   
    65    26    69 1   
    66    27    28 2   
    67    27    29 1   
    68    29    30 2   
    69    29    70 1   
    70    30    31 1   
    71    30    71 1   
    72    31    32 1   
    73    31    72 1   
    74    32    73 1   
    75    32    74 1   
    76    32    75 1   
@<TRIPOS>SUBSTRUCTURE
     1 PXI         1 TEMP              0 ****  ****    0 ROOT
