@<TRIPOS>MOLECULE
PXJ
   52    53     1     0     0
SMALL
abcg2


@<TRIPOS>ATOM
      1 C1          -9.1510     1.5450    -0.0630 ca         1 PXJ      -0.150000
      2 C2          -9.1830     0.1670     0.0120 ca         1 PXJ       0.084600
      3 C3          -7.9820    -0.5670    -0.0400 ca         1 PXJ       0.200600
      4 C4          -6.7610     0.1140    -0.1410 ca         1 PXJ      -0.250100
      5 C5          -6.7560     1.5140    -0.2310 ca         1 PXJ      -0.078000
      6 C6          -7.9370     2.2200    -0.1920 ca         1 PXJ      -0.128000
      7 C8          -5.5180    -0.6980    -0.1600 c          1 PXJ       0.625700
      8 O9          -5.5740    -1.9350    -0.2680 o          1 PXJ      -0.652100
      9 N10         -4.3470    -0.0730    -0.0530 ns         1 PXJ      -0.479900
     10 C11         -3.0780    -0.7770    -0.0470 c3         1 PXJ       0.101000
     11 C12         -1.9230     0.2110    -0.0720 c3         1 PXJ      -0.095400
     12 C13         -0.5750    -0.4960    -0.0600 c3         1 PXJ      -0.072400
     13 C14          0.5970     0.4770    -0.0670 c3         1 PXJ      -0.072400
     14 C15          1.9460    -0.2300    -0.0610 c3         1 PXJ      -0.095400
     15 C16          3.1000     0.7580    -0.0540 c3         1 PXJ       0.101000
     16 N17          4.3700     0.0550    -0.0670 ns         1 PXJ      -0.479900
     17 C18          5.5300     0.6470     0.2100 c          1 PXJ       0.625700
     18 O19          5.5800     1.8560     0.4930 o          1 PXJ      -0.652100
     19 C20          6.7700    -0.1680     0.1720 ca         1 PXJ      -0.250100
     20 C21          7.9950     0.5050     0.2870 ca         1 PXJ       0.200600
     21 C22          9.1970    -0.2270     0.2250 ca         1 PXJ       0.084600
     22 C23          9.1610    -1.5980     0.0770 ca         1 PXJ      -0.150000
     23 C24          7.9410    -2.2700    -0.0090 ca         1 PXJ      -0.128000
     24 C25          6.7610    -1.5640     0.0380 ca         1 PXJ      -0.078000
     25 O26         -8.0800    -1.8950     0.0180 oh         1 PXJ      -0.532600
     26 O27        -10.3140    -0.5560     0.1300 oh         1 PXJ      -0.509100
     27 O28          8.0960     1.8240     0.4530 oh         1 PXJ      -0.532600
     28 O29         10.3330     0.4910     0.3270 oh         1 PXJ      -0.509100
     29 H1         -10.0780     2.1060    -0.0300 ha         1 PXJ       0.116000
     30 H5          -5.8320     2.0620    -0.3560 ha         1 PXJ       0.105500
     31 H6          -7.9300     3.2980    -0.2650 ha         1 PXJ       0.118000
     32 HN10        -4.3260     0.9110     0.1530 hn         1 PXJ       0.320500
     33 H11         -3.0050    -1.4130     0.8400 h1         1 PXJ       0.057450
     34 H11A        -3.0240    -1.4350    -0.9170 h1         1 PXJ       0.057450
     35 H12         -2.0010     0.8420    -0.9630 hc         1 PXJ       0.045450
     36 H12A        -1.9940     0.8780     0.7940 hc         1 PXJ       0.045450
     37 H13         -0.5060    -1.1400     0.8230 hc         1 PXJ       0.044450
     38 H13A        -0.5020    -1.1590    -0.9290 hc         1 PXJ       0.044450
     39 H14          0.5270     1.1240    -0.9470 hc         1 PXJ       0.044450
     40 H14A         0.5260     1.1360     0.8040 hc         1 PXJ       0.044450
     41 H15          2.0190    -0.8810     0.8160 hc         1 PXJ       0.045450
     42 H15A         2.0220    -0.8790    -0.9410 hc         1 PXJ       0.045450
     43 H16          3.0280     1.4260    -0.9170 h1         1 PXJ       0.057450
     44 H16A         3.0470     1.3830     0.8390 h1         1 PXJ       0.057450
     45 HN17         4.3630    -0.8920    -0.4070 hn         1 PXJ       0.320500
     46 H23         10.0880    -2.1580     0.0350 ha         1 PXJ       0.116000
     47 H24          7.9290    -3.3460    -0.1070 ha         1 PXJ       0.118000
     48 H25          5.8310    -2.1150    -0.0130 ha         1 PXJ       0.105500
     49 HO26        -7.1560    -2.2380    -0.0960 ho         1 PXJ       0.520500
     50 HO27       -11.0800     0.0290     0.1530 ho         1 PXJ       0.459000
     51 HO28         7.1640     2.1570     0.5300 ho         1 PXJ       0.520500
     52 HO29        11.0990    -0.0920     0.2700 ho         1 PXJ       0.459000
@<TRIPOS>BOND
     1     1     2 ar  
     2     1     6 ar  
     3     1    29 1   
     4     2     3 ar  
     5     2    26 1   
     6     3     4 ar  
     7     3    25 1   
     8     4     5 ar  
     9     4     7 1   
    10     5     6 ar  
    11     5    30 1   
    12     6    31 1   
    13     7     8 2   
    14     7     9 1   
    15     9    10 1   
    16     9    32 1   
    17    10    11 1   
    18    10    33 1   
    19    10    34 1   
    20    11    12 1   
    21    11    35 1   
    22    11    36 1   
    23    12    13 1   
    24    12    37 1   
    25    12    38 1   
    26    13    14 1   
    27    13    39 1   
    28    13    40 1   
    29    14    15 1   
    30    14    41 1   
    31    14    42 1   
    32    15    16 1   
    33    15    43 1   
    34    15    44 1   
    35    16    17 1   
    36    16    45 1   
    37    17    18 2   
    38    17    19 1   
    39    19    20 ar  
    40    19    24 ar  
    41    20    21 ar  
    42    20    27 1   
    43    21    22 ar  
    44    21    28 1   
    45    22    23 ar  
    46    22    46 1   
    47    23    24 ar  
    48    23    47 1   
    49    24    48 1   
    50    25    49 1   
    51    26    50 1   
    52    27    51 1   
    53    28    52 1   
@<TRIPOS>SUBSTRUCTURE
     1 PXJ         1 TEMP              0 ****  ****    0 ROOT
