@<TRIPOS>MOLECULE
PXJ
   52    53     1     0     0
SMALL
No Charge or Current Charge


@<TRIPOS>ATOM
      1 C1          -9.2330     1.5970    -0.0890 ca         1 PXJ      -0.150000
      2 C2          -9.3380     0.1980    -0.1390 ca         1 PXJ       0.084600
      3 C3          -8.1630    -0.5990    -0.1470 ca         1 PXJ       0.200600
      4 C4          -6.8800     0.0050    -0.1060 ca         1 PXJ      -0.250100
      5 C5          -6.8040     1.4200    -0.0560 ca         1 PXJ      -0.078000
      6 C6          -7.9690     2.2030    -0.0480 ca         1 PXJ      -0.128000
      7 C8          -5.6300    -0.8500    -0.1160 c          1 PXJ       0.625700
      8 O9          -5.6860    -2.0730    -0.1590 o          1 PXJ      -0.652100
      9 N10         -4.4230    -0.1960    -0.0740 ns         1 PXJ      -0.479900
     10 C11         -3.1220    -0.8640    -0.0770 c3         1 PXJ       0.101000
     11 C12         -1.9630     0.1490    -0.0230 c3         1 PXJ      -0.095400
     12 C13         -0.5750    -0.5270    -0.0250 c3         1 PXJ      -0.072400
     13 C14          0.5900     0.4860     0.0290 c3         1 PXJ      -0.072400
     14 C15          1.9790    -0.1900     0.0270 c3         1 PXJ      -0.095400
     15 C16          3.1380     0.8240     0.0810 c3         1 PXJ       0.101000
     16 N17          4.4390     0.1550     0.0770 ns         1 PXJ      -0.479900
     17 C18          5.6460     0.8090     0.1160 c          1 PXJ       0.625700
     18 O19          5.7020     2.0330     0.1570 o          1 PXJ      -0.652100
     19 C20          6.8960    -0.0460     0.1060 ca         1 PXJ      -0.250100
     20 C21          8.1790     0.5580     0.1450 ca         1 PXJ       0.200600
     21 C22          9.3530    -0.2400     0.1350 ca         1 PXJ       0.084600
     22 C23          9.2480    -1.6390     0.0880 ca         1 PXJ      -0.150000
     23 C24          7.9850    -2.2440     0.0500 ca         1 PXJ      -0.128000
     24 C25          6.8190    -1.4610     0.0590 ca         1 PXJ      -0.078000
     25 O26         -8.2670    -1.9630    -0.1960 oh         1 PXJ      -0.532600
     26 O27        -10.5850    -0.3730    -0.1780 oh         1 PXJ      -0.509100
     27 O28          8.2830     1.9210     0.1910 oh         1 PXJ      -0.532600
     28 O29         10.6010     0.3320     0.1720 oh         1 PXJ      -0.509100
     29 H1         -10.1250     2.2200    -0.0810 ha         1 PXJ       0.116000
     30 H5          -5.8480     1.9370    -0.0230 ha         1 PXJ       0.105500
     31 H6          -7.8900     3.2880    -0.0090 ha         1 PXJ       0.118000
     32 HN10        -4.4490     0.8140    -0.0400 hn         1 PXJ       0.320500
     33 H11         -3.0660    -1.5350     0.7920 h1         1 PXJ       0.057450
     34 H11A        -3.0380    -1.4730    -0.9870 h1         1 PXJ       0.057450
     35 H12         -2.0370     0.8250    -0.8840 hc         1 PXJ       0.045450
     36 H12A        -2.0650     0.7640     0.8800 hc         1 PXJ       0.045450
     37 H13         -0.5030    -1.2050     0.8350 hc         1 PXJ       0.044450
     38 H13A        -0.4750    -1.1430    -0.9270 hc         1 PXJ       0.044450
     39 H14          0.5180     1.1640    -0.8310 hc         1 PXJ       0.044450
     40 H14A         0.4910     1.1020     0.9320 hc         1 PXJ       0.044450
     41 H15          2.0520    -0.8660     0.8880 hc         1 PXJ       0.045450
     42 H15A         2.0800    -0.8040    -0.8760 hc         1 PXJ       0.045450
     43 H16          3.0820     1.4940    -0.7880 h1         1 PXJ       0.057450
     44 H16A         3.0540     1.4320     0.9910 h1         1 PXJ       0.057450
     45 HN17         4.4650    -0.8550     0.0450 hn         1 PXJ       0.320500
     46 H23         10.1410    -2.2610     0.0800 ha         1 PXJ       0.116000
     47 H24          7.9050    -3.3290     0.0130 ha         1 PXJ       0.118000
     48 H25          5.8630    -1.9780     0.0280 ha         1 PXJ       0.105500
     49 HO26        -7.3300    -2.2980    -0.1930 ho         1 PXJ       0.520500
     50 HO27       -11.2590     0.3390    -0.1640 ho         1 PXJ       0.459000
     51 HO28         7.3460     2.2570     0.1880 ho         1 PXJ       0.520500
     52 HO29        11.2750    -0.3810     0.1580 ho         1 PXJ       0.459000
@<TRIPOS>BOND
     1     1     2 ar  
     2     1     6 ar  
     3     1    29 1   
     4     2     3 ar  
     5     2    26 1   
     6     3     4 ar  
     7     3    25 1   
     8     4     5 ar  
     9     4     7 1   
    10     5     6 ar  
    11     5    30 1   
    12     6    31 1   
    13     7     8 2   
    14     7     9 1   
    15     9    10 1   
    16     9    32 1   
    17    10    11 1   
    18    10    33 1   
    19    10    34 1   
    20    11    12 1   
    21    11    35 1   
    22    11    36 1   
    23    12    13 1   
    24    12    37 1   
    25    12    38 1   
    26    13    14 1   
    27    13    39 1   
    28    13    40 1   
    29    14    15 1   
    30    14    41 1   
    31    14    42 1   
    32    15    16 1   
    33    15    43 1   
    34    15    44 1   
    35    16    17 1   
    36    16    45 1   
    37    17    18 2   
    38    17    19 1   
    39    19    20 ar  
    40    19    24 ar  
    41    20    21 ar  
    42    20    27 1   
    43    21    22 ar  
    44    21    28 1   
    45    22    23 ar  
    46    22    46 1   
    47    23    24 ar  
    48    23    47 1   
    49    24    48 1   
    50    25    49 1   
    51    26    50 1   
    52    27    51 1   
    53    28    52 1   
@<TRIPOS>SUBSTRUCTURE
     1 PXJ         1 TEMP              0 ****  ****    0 ROOT
