@<TRIPOS>MOLECULE
PXK
   29    30     1     0     0
SMALL
No Charge or Current Charge


@<TRIPOS>ATOM
      1 S1           1.3650     1.5170     0.5700 ss         1 PXK      -0.021400
      2 C2           1.5860    -0.1730     0.2900 cc         1 PXK      -0.220000
      3 C3           2.6490    -0.4260    -0.4720 cd         1 PXK       0.300500
      4 N4           3.4030     0.6310    -0.9170 nd         1 PXK      -0.622000
      5 C5           2.8190     1.7360    -0.4250 cc         1 PXK       0.430300
      6 N6           2.7240    -1.7960    -0.6370 na         1 PXK      -0.254500
      7 C7           1.6410    -2.3850     0.0650 cd         1 PXK      -0.155000
      8 C8           0.9200    -1.3580     0.6500 cc         1 PXK      -0.104300
      9 C9          -0.3230    -1.4250     1.5000 c3         1 PXK       0.096000
     10 C10         -1.5070    -0.8350     0.8610 c1         1 PXK      -0.146100
     11 C11         -2.4560    -0.3200     0.3180 c1         1 PXK      -0.124100
     12 C12         -3.5850     0.3380    -0.3630 c3         1 PXK       0.041100
     13 C13         -4.1610    -0.6220    -1.4340 c3         1 PXK      -0.081767
     14 C14         -4.6780     0.6800     0.6800 c3         1 PXK      -0.081767
     15 C15         -3.0770     1.6370    -1.0390 c3         1 PXK      -0.081767
     16 H1           3.1790     2.7420    -0.5990 h5         1 PXK       0.049100
     17 H2           1.4720    -3.4570     0.0900 h4         1 PXK       0.148000
     18 H3          -0.5460    -2.4690     1.7510 hc         1 PXK       0.060200
     19 H4          -0.1460    -0.9090     2.4510 hc         1 PXK       0.060200
     20 H5          -4.5210    -1.5520    -0.9780 hc         1 PXK       0.038256
     21 H6          -5.0040    -0.1570    -1.9600 hc         1 PXK       0.038256
     22 H7          -3.4010    -0.8820    -2.1810 hc         1 PXK       0.038256
     23 H8          -4.2890     1.3560     1.4530 hc         1 PXK       0.038256
     24 H9          -5.5330     1.1740     0.2010 hc         1 PXK       0.038256
     25 H10         -5.0480    -0.2260     1.1770 hc         1 PXK       0.038256
     26 H11         -2.2960     1.4180    -1.7780 hc         1 PXK       0.038256
     27 H12         -3.8950     2.1530    -1.5560 hc         1 PXK       0.038256
     28 H13         -2.6580     2.3300    -0.2980 hc         1 PXK       0.038256
     29 H14          3.4350    -2.2780    -1.1720 hn         1 PXK       0.363000
@<TRIPOS>BOND
     1     1     2 1   
     2     1     5 1   
     3     2     3 2   
     4     2     8 1   
     5     3     4 1   
     6     3     6 1   
     7     4     5 2   
     8     5    16 1   
     9     6     7 1   
    10     6    29 1   
    11     7     8 2   
    12     7    17 1   
    13     8     9 1   
    14     9    10 1   
    15     9    18 1   
    16     9    19 1   
    17    10    11 3   
    18    11    12 1   
    19    12    13 1   
    20    12    14 1   
    21    12    15 1   
    22    13    20 1   
    23    13    21 1   
    24    13    22 1   
    25    14    23 1   
    26    14    24 1   
    27    14    25 1   
    28    15    26 1   
    29    15    27 1   
    30    15    28 1   
@<TRIPOS>SUBSTRUCTURE
     1 PXK         1 TEMP              0 ****  ****    0 ROOT
