@<TRIPOS>MOLECULE
PXK
   29    30     1     0     0
SMALL
abcg2


@<TRIPOS>ATOM
      1 S1           0.9040     1.3840    -0.2760 ss         1 PXK      -0.021400
      2 C2           1.3250    -0.2420     0.0840 cc         1 PXK      -0.220000
      3 C3           2.5720    -0.4910    -0.4610 cd         1 PXK       0.300500
      4 N4           3.1950     0.5100    -1.1250 nd         1 PXK      -0.622000
      5 C5           2.4300     1.5550    -1.1010 cc         1 PXK       0.430300
      6 N6           2.9030    -1.7800    -0.1990 na         1 PXK      -0.254500
      7 C7           1.8750    -2.3470     0.5040 cd         1 PXK      -0.155000
      8 C8           0.8710    -1.4280     0.7080 cc         1 PXK      -0.104300
      9 C9          -0.4070    -1.6320     1.4640 c3         1 PXK       0.096000
     10 C10         -1.5270    -0.9320     0.8400 c1         1 PXK      -0.146100
     11 C11         -2.4160    -0.3160     0.3110 c1         1 PXK      -0.124100
     12 C12         -3.5120     0.4280    -0.3220 c3         1 PXK       0.041100
     13 C13         -3.9530    -0.3000    -1.5980 c3         1 PXK      -0.081767
     14 C14         -4.6890     0.5170     0.6570 c3         1 PXK      -0.081767
     15 C15         -3.0270     1.8390    -0.6760 c3         1 PXK      -0.081767
     16 H1           2.6880     2.4990    -1.5610 h5         1 PXK       0.049100
     17 H2           1.9260    -3.3780     0.8160 h4         1 PXK       0.148000
     18 H3          -0.6280    -2.7000     1.5390 hc         1 PXK       0.060200
     19 H4          -0.2990    -1.2760     2.4940 hc         1 PXK       0.060200
     20 H5          -4.2920    -1.3140    -1.3800 hc         1 PXK       0.038256
     21 H6          -4.7790     0.2390    -2.0660 hc         1 PXK       0.038256
     22 H7          -3.1380    -0.3620    -2.3200 hc         1 PXK       0.038256
     23 H8          -4.4030     1.0390     1.5710 hc         1 PXK       0.038256
     24 H9          -5.5150     1.0650     0.1990 hc         1 PXK       0.038256
     25 H10         -5.0520    -0.4740     0.9320 hc         1 PXK       0.038256
     26 H11         -2.1880     1.8060    -1.3720 hc         1 PXK       0.038256
     27 H12         -3.8360     2.4050    -1.1420 hc         1 PXK       0.038256
     28 H13         -2.7030     2.3810     0.2130 hc         1 PXK       0.038256
     29 H14          3.7430    -2.2530    -0.4860 hn         1 PXK       0.363000
@<TRIPOS>BOND
     1     1     2 1   
     2     1     5 1   
     3     2     3 2   
     4     2     8 1   
     5     3     4 1   
     6     3     6 1   
     7     4     5 2   
     8     5    16 1   
     9     6     7 1   
    10     6    29 1   
    11     7     8 2   
    12     7    17 1   
    13     8     9 1   
    14     9    10 1   
    15     9    18 1   
    16     9    19 1   
    17    10    11 3   
    18    11    12 1   
    19    12    13 1   
    20    12    14 1   
    21    12    15 1   
    22    13    20 1   
    23    13    21 1   
    24    13    22 1   
    25    14    23 1   
    26    14    24 1   
    27    14    25 1   
    28    15    26 1   
    29    15    27 1   
    30    15    28 1   
@<TRIPOS>SUBSTRUCTURE
     1 PXK         1 TEMP              0 ****  ****    0 ROOT
