@<TRIPOS>MOLECULE
PXL
   21    21     1     0     0
SMALL
No Charge or Current Charge


@<TRIPOS>ATOM
      1 OP4          0.5920    -0.0120    -3.5890 oh         1 PXL      -0.653000
      2 C5A         -0.4140    -0.0370    -2.5700 c3         1 PXL       0.209900
      3 C5           0.1670    -0.0470    -1.1470 ca         1 PXL      -0.059300
      4 C6           1.5700    -0.0320    -0.9460 ca         1 PXL       0.314900
      5 N1           2.1550    -0.0390     0.2750 nb         1 PXL      -0.630000
      6 C2           1.3490    -0.0620     1.3600 ca         1 PXL       0.319300
      7 C3          -0.0710    -0.0790     1.2720 ca         1 PXL       0.168100
      8 C4          -0.6870    -0.0710    -0.0050 ca         1 PXL      -0.288600
      9 C4A         -2.1930    -0.0880    -0.1500 c          1 PXL       0.596500
     10 O4A         -2.9490    -0.1090     0.8180 o          1 PXL      -0.554100
     11 O3          -0.8390    -0.1020     2.4070 oh         1 PXL      -0.527100
     12 C2A          2.0620    -0.0690     2.7060 c3         1 PXL      -0.135400
     13 HP4          0.1220    -0.0080    -4.4530 ho         1 PXL       0.452000
     14 H5A1        -1.0420    -0.9290    -2.6970 h1         1 PXL       0.029200
     15 H5A2        -1.0650     0.8420    -2.6760 h1         1 PXL       0.029200
     16 H6           2.2650    -0.0130    -1.7840 h4         1 PXL       0.045100
     17 H4A         -2.6080    -0.0810    -1.1810 h4         1 PXL       0.005200
     18 HO3         -1.7850    -0.1100     2.1130 ho         1 PXL       0.511000
     19 H2A1         1.7770     0.8060     3.3000 hc         1 PXL       0.056033
     20 H2A2         1.7980    -0.9650     3.2790 hc         1 PXL       0.056033
     21 H2A3         3.1530    -0.0550     2.5950 hc         1 PXL       0.056033
@<TRIPOS>BOND
     1     1     2 1   
     2     1    13 1   
     3     2     3 1   
     4     2    14 1   
     5     2    15 1   
     6     3     4 ar  
     7     3     8 ar  
     8     4     5 ar  
     9     4    16 1   
    10     5     6 ar  
    11     6     7 ar  
    12     6    12 1   
    13     7     8 ar  
    14     7    11 1   
    15     8     9 1   
    16     9    10 2   
    17     9    17 1   
    18    11    18 1   
    19    12    19 1   
    20    12    20 1   
    21    12    21 1   
@<TRIPOS>SUBSTRUCTURE
     1 PXL         1 TEMP              0 ****  ****    0 ROOT
