@<TRIPOS>MOLECULE
PXL
   21    21     1     0     0
SMALL
abcg2


@<TRIPOS>ATOM
      1 OP4          0.6010    -0.0460    -3.5080 oh         1 PXL      -0.653000
      2 C5A         -0.4260    -0.0340    -2.5550 c3         1 PXL       0.209900
      3 C5           0.1640    -0.0450    -1.1700 ca         1 PXL      -0.059300
      4 C6           1.5280    -0.0270    -0.9620 ca         1 PXL       0.314900
      5 N1           2.0840    -0.0350     0.2530 nb         1 PXL      -0.630000
      6 C2           1.3400    -0.0600     1.3370 ca         1 PXL       0.319300
      7 C3          -0.0670    -0.0790     1.2390 ca         1 PXL       0.168100
      8 C4          -0.6600    -0.0720    -0.0280 ca         1 PXL      -0.288600
      9 C4A         -2.1170    -0.0910    -0.1380 c          1 PXL       0.596500
     10 O4A         -2.8630    -0.1150     0.8280 o          1 PXL      -0.554100
     11 O3          -0.7620    -0.1030     2.3690 oh         1 PXL      -0.527100
     12 C2A          2.0030    -0.0690     2.6780 c3         1 PXL      -0.135400
     13 HP4          0.1960    -0.0150    -4.3790 ho         1 PXL       0.452000
     14 H5A1        -1.0870    -0.9040    -2.6680 h1         1 PXL       0.029200
     15 H5A2        -1.0620     0.8550    -2.6610 h1         1 PXL       0.029200
     16 H6           2.2180    -0.0050    -1.7930 h4         1 PXL       0.045100
     17 H4A         -2.5460    -0.0810    -1.1480 h4         1 PXL       0.005200
     18 HO3         -1.7170    -0.1150     2.1500 ho         1 PXL       0.511000
     19 H2A1         1.7080     0.7930     3.2770 hc         1 PXL       0.056033
     20 H2A2         1.7390    -0.9610     3.2490 hc         1 PXL       0.056033
     21 H2A3         3.0840    -0.0480     2.5550 hc         1 PXL       0.056033
@<TRIPOS>BOND
     1     1     2 1   
     2     1    13 1   
     3     2     3 1   
     4     2    14 1   
     5     2    15 1   
     6     3     4 ar  
     7     3     8 ar  
     8     4     5 ar  
     9     4    16 1   
    10     5     6 ar  
    11     6     7 ar  
    12     6    12 1   
    13     7     8 ar  
    14     7    11 1   
    15     8     9 1   
    16     9    10 2   
    17     9    17 1   
    18    11    18 1   
    19    12    19 1   
    20    12    20 1   
    21    12    21 1   
@<TRIPOS>SUBSTRUCTURE
     1 PXL         1 TEMP              0 ****  ****    0 ROOT
