@<TRIPOS>MOLECULE
PXM
   24    24     1     0     0
SMALL
abcg2


@<TRIPOS>ATOM
      1 N1           1.9740    -0.0980     0.8290 nb         1 PXM      -0.647000
      2 C2           0.9290    -0.1290     1.6390 ca         1 PXM       0.316300
      3 C2A          1.1710    -0.2690     3.1120 c3         1 PXM      -0.131400
      4 C3          -0.3800    -0.0250     1.1450 ca         1 PXM       0.128100
      5 O3          -1.3950    -0.0480     2.0200 oh         1 PXM      -0.570100
      6 C4          -0.5870     0.1090    -0.2310 ca         1 PXM      -0.171300
      7 C5           0.5330     0.1350    -1.0670 ca         1 PXM      -0.100300
      8 C5A          0.3700     0.2860    -2.5570 c3         1 PXM       0.214900
      9 O5           1.6270     0.2880    -3.1810 oh         1 PXM      -0.654000
     10 C6           1.7860     0.0270    -0.4820 ca         1 PXM       0.320900
     11 C4A         -1.9880     0.2770    -0.7650 c3         1 PXM       0.198100
     12 N4          -2.9430    -0.5160     0.0090 n8         1 PXM      -1.025200
     13 H2A1         0.8270     0.6090     3.6630 hc         1 PXM       0.050367
     14 H2A2         0.6410    -1.1280     3.5270 hc         1 PXM       0.050367
     15 H2A3         2.2340    -0.3950     3.3040 hc         1 PXM       0.050367
     16 HO3         -2.2230    -0.2290     1.4770 ho         1 PXM       0.516000
     17 H5A1        -0.1800     1.2130    -2.7680 h1         1 PXM       0.021700
     18 H5A2        -0.2580    -0.5350    -2.9310 h1         1 PXM       0.021700
     19 HO5          1.4880     0.3830    -4.1270 ho         1 PXM       0.447000
     20 H6           2.6810     0.0420    -1.0890 h4         1 PXM       0.038100
     21 H4A1        -2.0310     0.0440    -1.8310 h1         1 PXM       0.045200
     22 H4A2        -2.2740     1.3280    -0.6700 h1         1 PXM       0.045200
     23 HN41        -3.8900    -0.2220    -0.1900 hn         1 PXM       0.418500
     24 HN42        -2.8780    -1.4940    -0.2450 hn         1 PXM       0.418500
@<TRIPOS>BOND
     1     1     2 ar  
     2     1    10 ar  
     3     2     3 1   
     4     2     4 ar  
     5     3    13 1   
     6     3    14 1   
     7     3    15 1   
     8     4     5 1   
     9     4     6 ar  
    10     5    16 1   
    11     6     7 ar  
    12     6    11 1   
    13     7     8 1   
    14     7    10 ar  
    15     8     9 1   
    16     8    17 1   
    17     8    18 1   
    18     9    19 1   
    19    10    20 1   
    20    11    12 1   
    21    11    21 1   
    22    11    22 1   
    23    12    23 1   
    24    12    24 1   
@<TRIPOS>SUBSTRUCTURE
     1 PXM         1 TEMP              0 ****  ****    0 ROOT
