@<TRIPOS>MOLECULE
PXM
   24    24     1     0     0
SMALL
No Charge or Current Charge


@<TRIPOS>ATOM
      1 N1           2.0200    -0.2280     0.8520 nb         1 PXM      -0.647000
      2 C2           0.9480    -0.1510     1.6720 ca         1 PXM       0.316300
      3 C2A          1.2450    -0.2680     3.1610 c3         1 PXM      -0.131400
      4 C3          -0.3790     0.0130     1.1900 ca         1 PXM       0.128100
      5 O3          -1.4500     0.0610     2.0380 oh         1 PXM      -0.570100
      6 C4          -0.6130     0.1070    -0.2020 ca         1 PXM      -0.171300
      7 C5           0.5230     0.0600    -1.0580 ca         1 PXM      -0.100300
      8 C5A          0.3970     0.1910    -2.5810 c3         1 PXM       0.214900
      9 O5           1.5840     0.7320    -3.1730 oh         1 PXM      -0.654000
     10 C6           1.8020    -0.1250    -0.4790 ca         1 PXM       0.320900
     11 C4A         -2.0350     0.3100    -0.7530 c3         1 PXM       0.198100
     12 N4          -3.0570    -0.4330     0.0160 n8         1 PXM      -1.025200
     13 H2A1         0.8880     0.6190     3.6980 hc         1 PXM       0.050367
     14 H2A2         0.7450    -1.1440     3.5890 hc         1 PXM       0.050367
     15 H2A3         2.3180    -0.3670     3.3620 hc         1 PXM       0.050367
     16 HO3         -2.2360    -0.0590     1.4250 ho         1 PXM       0.516000
     17 H5A1        -0.4470     0.8460    -2.8260 h1         1 PXM       0.021700
     18 H5A2         0.1820    -0.8000    -3.0030 h1         1 PXM       0.021700
     19 HO5          1.4140     0.7930    -4.1400 ho         1 PXM       0.447000
     20 H6           2.6950    -0.1930    -1.1000 h4         1 PXM       0.038100
     21 H4A1        -2.1040    -0.0220    -1.7970 h1         1 PXM       0.045200
     22 H4A2        -2.2790     1.3810    -0.7190 h1         1 PXM       0.045200
     23 HN41        -3.9820    -0.2320    -0.3940 hn         1 PXM       0.418500
     24 HN42        -2.9450    -1.4380    -0.1850 hn         1 PXM       0.418500
@<TRIPOS>BOND
     1     1     2 ar  
     2     1    10 ar  
     3     2     3 1   
     4     2     4 ar  
     5     3    13 1   
     6     3    14 1   
     7     3    15 1   
     8     4     5 1   
     9     4     6 ar  
    10     5    16 1   
    11     6     7 ar  
    12     6    11 1   
    13     7     8 1   
    14     7    10 ar  
    15     8     9 1   
    16     8    17 1   
    17     8    18 1   
    18     9    19 1   
    19    10    20 1   
    20    11    12 1   
    21    11    21 1   
    22    11    22 1   
    23    12    23 1   
    24    12    24 1   
@<TRIPOS>SUBSTRUCTURE
     1 PXM         1 TEMP              0 ****  ****    0 ROOT
