@<TRIPOS>MOLECULE
PXN
   61    60     1     0     0
SMALL
No Charge or Current Charge


@<TRIPOS>ATOM
      1 CAA          4.5040     4.2140     0.1900 c3         1 PXN      -0.125850
      2 CAB         -2.5930    -4.4120    -0.7870 c3         1 PXN      -0.125850
      3 CAC          0.7810     0.9670     0.8510 c3         1 PXN       0.167100
      4 OAD          1.6430     1.7240    -0.0210 os         1 PXN      -0.447750
      5 CAE          2.4880     2.6750     0.6590 c3         1 PXN       0.151850
      6 CAF          3.3280     3.4200    -0.4120 c3         1 PXN       0.171050
      7 OAG          3.8320     2.4710    -1.3590 oh         1 PXN      -0.707750
      8 OAH         -4.4040    -2.7920    -0.7790 oh         1 PXN      -0.707750
      9 CAI         -3.5030    -3.5160     0.0800 c3         1 PXN       0.171050
     10 CAJ         -2.7050    -2.5450     1.0040 c3         1 PXN       0.151850
     11 OAK         -1.8360    -1.7110     0.2100 os         1 PXN      -0.447750
     12 CAL         -1.0130    -0.8070     0.9720 c3         1 PXN       0.167100
     13 CAM         -0.1130     0.0160     0.0030 c3         1 PXN      -0.033000
     14 CAN         -1.0000     0.8480    -0.9690 c3         1 PXN       0.167100
     15 OAO         -1.8390     1.7400    -0.2100 os         1 PXN      -0.447750
     16 CAP         -2.7340     2.5440    -1.0050 c3         1 PXN       0.151850
     17 CAQ         -3.6160     3.4370    -0.0780 c3         1 PXN       0.171050
     18 OAR         -2.8160     4.4030     0.6270 oh         1 PXN      -0.707750
     19 OAS          3.7670    -2.5290     1.3940 oh         1 PXN      -0.707750
     20 CAT          3.2500    -3.4620     0.4380 c3         1 PXN       0.171050
     21 CAU          2.4380    -2.6930    -0.6390 c3         1 PXN       0.151850
     22 OAV          1.6100    -1.7240     0.0360 os         1 PXN      -0.447750
     23 CAW          0.7740    -0.9450    -0.8410 c3         1 PXN       0.167100
     24 CAX         -4.4380     2.6220     0.9440 c3         1 PXN      -0.125850
     25 CAY          4.4120    -4.2820    -0.1550 c3         1 PXN      -0.125850
     26 HAA          5.2020     3.5470     0.7100 hc         1 PXN       0.042700
     27 HAAA         5.0530     4.7450    -0.5960 hc         1 PXN       0.042700
     28 HAAB         4.1360     4.9560     0.9090 hc         1 PXN       0.042700
     29 HABA        -2.0090    -3.8140    -1.4980 hc         1 PXN       0.042700
     30 HABB        -1.8920    -4.9700    -0.1540 hc         1 PXN       0.042700
     31 HAC          1.3800     0.3780     1.5590 h1         1 PXN       0.035825
     32 HACA         0.1470     1.6410     1.4410 h1         1 PXN       0.035825
     33 HAE          1.8880     3.4010     1.2240 h1         1 PXN       0.025450
     34 HAEA         3.1570     2.1590     1.3600 h1         1 PXN       0.025450
     35 HAF          2.6610     4.1300    -0.9210 h1         1 PXN       0.054200
     36 HOAG         3.1540     1.7550    -1.3540 ho         1 PXN       0.495500
     37 HOAH        -4.8470    -3.4560    -1.3540 ho         1 PXN       0.495500
     38 HAI         -4.0830    -4.1770     0.7400 h1         1 PXN       0.054200
     39 HAJ         -3.4090    -1.9310     1.5810 h1         1 PXN       0.025450
     40 HAJA        -2.1160    -3.1390     1.7150 h1         1 PXN       0.025450
     41 HAL         -1.6400    -0.1280     1.5650 h1         1 PXN       0.035825
     42 HALA        -0.3810    -1.3680     1.6730 h1         1 PXN       0.035825
     43 HAN         -0.3620     1.4180    -1.6570 h1         1 PXN       0.035825
     44 HANA        -1.6160     0.1710    -1.5760 h1         1 PXN       0.035825
     45 HAP         -2.1690     3.1850    -1.6950 h1         1 PXN       0.025450
     46 HAPA        -3.3910     1.9010    -1.6050 h1         1 PXN       0.025450
     47 HAQ         -4.3290     3.9620    -0.7290 h1         1 PXN       0.054200
     48 HOAR        -3.4250     4.9070     1.2130 ho         1 PXN       0.495500
     49 HAT          2.5600    -4.1570     0.9370 h1         1 PXN       0.054200
     50 HAU          3.1270    -2.1910    -1.3320 h1         1 PXN       0.025450
     51 HAUA         1.8270    -3.4020    -1.2120 h1         1 PXN       0.025450
     52 HAW          0.1340    -1.6040    -1.4430 h1         1 PXN       0.035825
     53 HAWA         1.3910    -0.3630    -1.5380 h1         1 PXN       0.035825
     54 HAX         -3.7840     2.0990     1.6520 hc         1 PXN       0.042700
     55 HAXA        -5.1090     3.2760     1.5140 hc         1 PXN       0.042700
     56 HAXB        -5.0530     1.8740     0.4300 hc         1 PXN       0.042700
     57 HAY          4.9400    -4.8290     0.6350 hc         1 PXN       0.042700
     58 HAYA         4.0340    -5.0120    -0.8800 hc         1 PXN       0.042700
     59 HAYB         5.1310    -3.6300    -0.6650 hc         1 PXN       0.042700
     60 HOAS         3.1060    -1.7960     1.3830 ho         1 PXN       0.495500
     61 HAB         -3.1870    -5.1380    -1.3550 hc         1 PXN       0.042700
@<TRIPOS>BOND
     1     1     6 1   
     2     1    26 1   
     3     1    27 1   
     4     1    28 1   
     5     2     9 1   
     6     2    29 1   
     7     2    30 1   
     8     2    61 1   
     9     3     4 1   
    10     3    13 1   
    11     3    31 1   
    12     3    32 1   
    13     4     5 1   
    14     5     6 1   
    15     5    33 1   
    16     5    34 1   
    17     6     7 1   
    18     6    35 1   
    19     7    36 1   
    20     8     9 1   
    21     8    37 1   
    22     9    10 1   
    23     9    38 1   
    24    10    11 1   
    25    10    39 1   
    26    10    40 1   
    27    11    12 1   
    28    12    13 1   
    29    12    41 1   
    30    12    42 1   
    31    13    14 1   
    32    13    23 1   
    33    14    15 1   
    34    14    43 1   
    35    14    44 1   
    36    15    16 1   
    37    16    17 1   
    38    16    45 1   
    39    16    46 1   
    40    17    18 1   
    41    17    24 1   
    42    17    47 1   
    43    18    48 1   
    44    19    20 1   
    45    19    60 1   
    46    20    21 1   
    47    20    25 1   
    48    20    49 1   
    49    21    22 1   
    50    21    50 1   
    51    21    51 1   
    52    22    23 1   
    53    23    52 1   
    54    23    53 1   
    55    24    54 1   
    56    24    55 1   
    57    24    56 1   
    58    25    57 1   
    59    25    58 1   
    60    25    59 1   
@<TRIPOS>SUBSTRUCTURE
     1 PXN         1 TEMP              0 ****  ****    0 ROOT
