@<TRIPOS>MOLECULE
PXN
   61    60     1     0     0
SMALL
abcg2


@<TRIPOS>ATOM
      1 CAA          4.2770     4.2320     0.5000 c3         1 PXN      -0.125850
      2 CAB         -2.5210    -4.3470    -0.5100 c3         1 PXN      -0.125850
      3 CAC          0.7220     0.9770     0.8470 c3         1 PXN       0.167100
      4 OAD          1.5080     1.7870     0.0140 os         1 PXN      -0.447750
      5 CAE          2.4620     2.5340     0.7150 c3         1 PXN       0.151850
      6 CAF          3.2890     3.3580    -0.2580 c3         1 PXN       0.171050
      7 OAG          3.9270     2.5510    -1.2260 oh         1 PXN      -0.707750
      8 OAH         -4.3370    -2.7230    -0.5290 oh         1 PXN      -0.707750
      9 CAI         -3.4280    -3.4260     0.2950 c3         1 PXN       0.171050
     10 CAJ         -2.6510    -2.4110     1.1070 c3         1 PXN       0.151850
     11 OAK         -1.8330    -1.6430     0.2720 os         1 PXN      -0.447750
     12 CAL         -1.0310    -0.7360     0.9740 c3         1 PXN       0.167100
     13 CAM         -0.1520     0.0510    -0.0010 c3         1 PXN      -0.033000
     14 CAN         -1.0140     0.8480    -0.9840 c3         1 PXN       0.167100
     15 OAO         -1.8040     1.7710    -0.2880 os         1 PXN      -0.447750
     16 CAP         -2.6950     2.4680    -1.1150 c3         1 PXN       0.151850
     17 CAQ         -3.6390     3.3050    -0.2770 c3         1 PXN       0.171050
     18 OAR         -2.8770     4.3030     0.3730 oh         1 PXN      -0.707750
     19 OAS          3.9250    -2.5550     1.1600 oh         1 PXN      -0.707750
     20 CAT          3.1720    -3.3710     0.2870 c3         1 PXN       0.171050
     21 CAU          2.3520    -2.5500    -0.6950 c3         1 PXN       0.151850
     22 OAV          1.4900    -1.6980     0.0030 os         1 PXN      -0.447750
     23 CAW          0.7150    -0.8890    -0.8390 c3         1 PXN       0.167100
     24 CAX         -4.4410     2.4660     0.7080 c3         1 PXN      -0.125850
     25 CAY          4.0500    -4.3640    -0.4610 c3         1 PXN      -0.125850
     26 HAA          4.9580     3.6270     1.1050 hc         1 PXN       0.042700
     27 HAAA         4.8760     4.8270    -0.1890 hc         1 PXN       0.042700
     28 HAAB         3.7610     4.9190     1.1710 hc         1 PXN       0.042700
     29 HABA        -1.9060    -3.7890    -1.2150 hc         1 PXN       0.042700
     30 HABB        -1.8550    -4.9040     0.1520 hc         1 PXN       0.042700
     31 HAC          1.3590     0.3710     1.5040 h1         1 PXN       0.035825
     32 HACA         0.0860     1.5930     1.4980 h1         1 PXN       0.035825
     33 HAE          1.9830     3.2100     1.4380 h1         1 PXN       0.025450
     34 HAEA         3.1270     1.8740     1.2960 h1         1 PXN       0.025450
     35 HAF          2.6100     4.0040    -0.8240 h1         1 PXN       0.054200
     36 HOAG         4.5230     1.9470    -0.7700 ho         1 PXN       0.495500
     37 HOAH        -4.8570    -3.3700    -1.0160 ho         1 PXN       0.495500
     38 HAI         -3.9720    -4.0400     1.0290 h1         1 PXN       0.054200
     39 HAJ         -3.3520    -1.7710     1.6660 h1         1 PXN       0.025450
     40 HAJA        -2.0540    -2.9540     1.8550 h1         1 PXN       0.025450
     41 HAL         -1.6510    -0.0360     1.5520 h1         1 PXN       0.035825
     42 HALA        -0.3940    -1.2640     1.6990 h1         1 PXN       0.035825
     43 HAN         -0.3680     1.3590    -1.7130 h1         1 PXN       0.035825
     44 HANA        -1.6450     0.1540    -1.5550 h1         1 PXN       0.035825
     45 HAP         -2.1530     3.1140    -1.8220 h1         1 PXN       0.025450
     46 HAPA        -3.2970     1.7740    -1.7190 h1         1 PXN       0.025450
     47 HAQ         -4.3420     3.7640    -0.9880 h1         1 PXN       0.054200
     48 HOAR        -3.4780     4.8490     0.8890 ho         1 PXN       0.495500
     49 HAT          2.4820    -3.9250     0.9310 h1         1 PXN       0.054200
     50 HAU          3.0300    -1.9770    -1.3480 h1         1 PXN       0.025450
     51 HAUA         1.7900    -3.2330    -1.3490 h1         1 PXN       0.025450
     52 HAW          0.0730    -1.5050    -1.4850 h1         1 PXN       0.035825
     53 HAWA         1.3610    -0.2970    -1.5030 h1         1 PXN       0.035825
     54 HAX         -3.7910     1.9280     1.3970 hc         1 PXN       0.042700
     55 HAXA        -5.1170     3.0950     1.2900 hc         1 PXN       0.042700
     56 HAXB        -5.0530     1.7340     0.1780 hc         1 PXN       0.042700
     57 HAY          4.6360    -4.9640     0.2350 hc         1 PXN       0.042700
     58 HAYA         3.4490    -5.0460    -1.0630 hc         1 PXN       0.042700
     59 HAYB         4.7440    -3.8510    -1.1320 hc         1 PXN       0.042700
     60 HOAS         4.5210    -2.0150     0.6300 ho         1 PXN       0.495500
     61 HAB         -3.1090    -5.0780    -1.0680 hc         1 PXN       0.042700
@<TRIPOS>BOND
     1     1     6 1   
     2     1    26 1   
     3     1    27 1   
     4     1    28 1   
     5     2     9 1   
     6     2    29 1   
     7     2    30 1   
     8     2    61 1   
     9     3     4 1   
    10     3    13 1   
    11     3    31 1   
    12     3    32 1   
    13     4     5 1   
    14     5     6 1   
    15     5    33 1   
    16     5    34 1   
    17     6     7 1   
    18     6    35 1   
    19     7    36 1   
    20     8     9 1   
    21     8    37 1   
    22     9    10 1   
    23     9    38 1   
    24    10    11 1   
    25    10    39 1   
    26    10    40 1   
    27    11    12 1   
    28    12    13 1   
    29    12    41 1   
    30    12    42 1   
    31    13    14 1   
    32    13    23 1   
    33    14    15 1   
    34    14    43 1   
    35    14    44 1   
    36    15    16 1   
    37    16    17 1   
    38    16    45 1   
    39    16    46 1   
    40    17    18 1   
    41    17    24 1   
    42    17    47 1   
    43    18    48 1   
    44    19    20 1   
    45    19    60 1   
    46    20    21 1   
    47    20    25 1   
    48    20    49 1   
    49    21    22 1   
    50    21    50 1   
    51    21    51 1   
    52    22    23 1   
    53    23    52 1   
    54    23    53 1   
    55    24    54 1   
    56    24    55 1   
    57    24    56 1   
    58    25    57 1   
    59    25    58 1   
    60    25    59 1   
@<TRIPOS>SUBSTRUCTURE
     1 PXN         1 TEMP              0 ****  ****    0 ROOT
