@<TRIPOS>MOLECULE
PXS
  107   106     1     0     0
SMALL
No Charge or Current Charge


@<TRIPOS>ATOM
      1 C01         18.8890     4.9590    -1.1210 c3         1 PXS      -0.088100
      2 C02         18.0270     3.7070    -0.8680 c3         1 PXS      -0.075400
      3 C03         16.5270     4.0310    -0.6890 c3         1 PXS      -0.075400
      4 C04         15.6640     2.7760    -0.4370 c3         1 PXS      -0.074400
      5 C05         14.1640     3.1000    -0.2580 c3         1 PXS      -0.074400
      6 C06         13.3010     1.8450    -0.0050 c3         1 PXS      -0.074400
      7 C07         11.8010     2.1690     0.1740 c3         1 PXS      -0.073400
      8 C08         10.9370     0.9140     0.4270 c3         1 PXS      -0.074400
      9 C09          9.4380     1.2380     0.6070 c3         1 PXS      -0.073400
     10 C10          8.5740    -0.0170     0.8590 c3         1 PXS      -0.074400
     11 C11          7.0750     0.3070     1.0390 c3         1 PXS      -0.073400
     12 C12          6.2120    -0.9480     1.2920 c3         1 PXS      -0.075400
     13 C13          4.7120    -0.6230     1.4720 c3         1 PXS      -0.075400
     14 C14          3.8490    -1.8780     1.7240 c3         1 PXS      -0.069400
     15 C15          2.3470    -1.5530     1.9040 c3         1 PXS      -0.136400
     16 C16          1.5280    -2.8240     2.1370 c          1 PXS       0.592100
     17 O17          1.0060    -3.3130     0.9690 os         1 PXS      -0.440100
     18 C18          0.2130    -4.5180     1.0320 c3         1 PXS       0.163600
     19 C19         -0.2770    -4.8940    -0.3920 c3         1 PXS       0.177300
     20 C20          0.8730    -5.0200    -1.4220 c3         1 PXS      -0.110100
     21 O21         -1.1890    -3.8630    -0.8330 os         1 PXS      -0.447100
     22 C22         -2.0590    -4.1290    -1.8600 c          1 PXS       0.594100
     23 C23         -2.9040    -2.9040    -2.2150 c3         1 PXS      -0.137400
     24 C24         -4.2550    -2.9160    -1.4610 c3         1 PXS      -0.068400
     25 C25         -5.1350    -1.6880    -1.7820 c3         1 PXS      -0.075400
     26 C26         -6.4840    -1.6990    -1.0300 c3         1 PXS      -0.074400
     27 C27         -7.3640    -0.4710    -1.3500 c3         1 PXS      -0.073400
     28 C28         -8.7130    -0.4820    -0.5970 c3         1 PXS      -0.074400
     29 C29         -9.5930     0.7460    -0.9170 c3         1 PXS      -0.073400
     30 C30        -10.9420     0.7350    -0.1650 c3         1 PXS      -0.074400
     31 C31        -11.8230     1.9630    -0.4850 c3         1 PXS      -0.073400
     32 C32        -13.1710     1.9520     0.2680 c3         1 PXS      -0.074400
     33 C33        -14.0520     3.1800    -0.0520 c3         1 PXS      -0.074400
     34 C34        -15.4000     3.1690     0.7010 c3         1 PXS      -0.074400
     35 C35        -16.2810     4.3970     0.3810 c3         1 PXS      -0.075400
     36 C36        -17.6290     4.3870     1.1330 c3         1 PXS      -0.074400
     37 C37        -18.5080     5.6120     0.8150 c3         1 PXS      -0.088100
     38 O38         -2.1730    -5.2130    -2.4160 o          1 PXS      -0.491000
     39 O39          1.3720    -3.3410     3.2350 o          1 PXS      -0.489000
     40 H01         18.5650     5.4760    -2.0320 hc         1 PXS       0.031367
     41 H01A        18.8130     5.6590    -0.2790 hc         1 PXS       0.031367
     42 H01B        19.9420     4.6800    -1.2410 hc         1 PXS       0.031367
     43 H02         18.1510     3.0130    -1.7090 hc         1 PXS       0.036700
     44 H02A        18.3980     3.1940     0.0280 hc         1 PXS       0.036700
     45 H03         16.4070     4.7260     0.1510 hc         1 PXS       0.036700
     46 H03A        16.1610     4.5460    -1.5860 hc         1 PXS       0.036700
     47 H04         15.7840     2.0800    -1.2770 hc         1 PXS       0.036700
     48 H04A        16.0300     2.2610     0.4600 hc         1 PXS       0.036700
     49 H05         14.0440     3.7950     0.5830 hc         1 PXS       0.036700
     50 H05A        13.7980     3.6150    -1.1550 hc         1 PXS       0.036700
     51 H06         13.4210     1.1490    -0.8450 hc         1 PXS       0.037200
     52 H06A        13.6670     1.3300     0.8920 hc         1 PXS       0.037200
     53 H07         11.6810     2.8640     1.0150 hc         1 PXS       0.037200
     54 H07A        11.4340     2.6840    -0.7230 hc         1 PXS       0.037200
     55 H08         11.0580     0.2190    -0.4130 hc         1 PXS       0.037200
     56 H08A        11.3040     0.3990     1.3240 hc         1 PXS       0.037200
     57 H09          9.3180     1.9330     1.4470 hc         1 PXS       0.037700
     58 H09A         9.0710     1.7530    -0.2900 hc         1 PXS       0.037700
     59 H10          8.6940    -0.7120     0.0190 hc         1 PXS       0.037700
     60 H10A         8.9410    -0.5320     1.7560 hc         1 PXS       0.037700
     61 H11          6.9550     1.0030     1.8790 hc         1 PXS       0.037200
     62 H11A         6.7080     0.8220     0.1420 hc         1 PXS       0.037200
     63 H12          6.3320    -1.6430     0.4520 hc         1 PXS       0.039700
     64 H12A         6.5790    -1.4630     2.1890 hc         1 PXS       0.039700
     65 H13          4.5930     0.0720     2.3120 hc         1 PXS       0.037200
     66 H13A         4.3460    -0.1080     0.5750 hc         1 PXS       0.037200
     67 H14          3.9690    -2.5740     0.8840 hc         1 PXS       0.054200
     68 H14A         4.2150    -2.3950     2.6210 hc         1 PXS       0.054200
     69 H15          2.2240    -0.8820     2.7620 hc         1 PXS       0.071700
     70 H15A         2.0020    -1.0700     0.9820 hc         1 PXS       0.071700
     71 H18          0.8080    -5.3490     1.4330 h1         1 PXS       0.059700
     72 H18A        -0.6580    -4.3800     1.6860 h1         1 PXS       0.059700
     73 H19         -0.7940    -5.8600    -0.3120 h1         1 PXS       0.069700
     74 H20          1.6390    -5.7140    -1.0550 hc         1 PXS       0.051700
     75 H20A         0.5060    -5.4060    -2.3800 hc         1 PXS       0.051700
     76 H20B         1.3490    -4.0490    -1.6010 hc         1 PXS       0.051700
     77 H23         -2.3650    -1.9990    -1.9110 hc         1 PXS       0.071700
     78 H23A        -3.0940    -2.8980    -3.2940 hc         1 PXS       0.071700
     79 H24         -4.8030    -3.8310    -1.7190 hc         1 PXS       0.054200
     80 H24A        -4.0650    -2.9520    -0.3810 hc         1 PXS       0.054200
     81 H25         -4.5870    -0.7740    -1.5230 hc         1 PXS       0.037700
     82 H25A        -5.3250    -1.6530    -2.8620 hc         1 PXS       0.037700
     83 H26         -7.0330    -2.6130    -1.2880 hc         1 PXS       0.039700
     84 H26A        -6.2940    -1.7350     0.0500 hc         1 PXS       0.039700
     85 H27         -6.8150     0.4430    -1.0910 hc         1 PXS       0.037200
     86 H27A        -7.5550    -0.4360    -2.4300 hc         1 PXS       0.037200
     87 H28         -9.2620    -1.3960    -0.8560 hc         1 PXS       0.037700
     88 H28A        -8.5230    -0.5180     0.4830 hc         1 PXS       0.037700
     89 H29         -9.0440     1.6600    -0.6580 hc         1 PXS       0.036700
     90 H29A        -9.7840     0.7810    -1.9970 hc         1 PXS       0.036700
     91 H30        -11.4920    -0.1790    -0.4240 hc         1 PXS       0.037200
     92 H30A       -10.7520     0.6990     0.9150 hc         1 PXS       0.037200
     93 H31        -11.2730     2.8770    -0.2260 hc         1 PXS       0.036700
     94 H31A       -12.0130     1.9980    -1.5650 hc         1 PXS       0.036700
     95 H32        -13.7210     1.0380     0.0090 hc         1 PXS       0.037200
     96 H32A       -12.9810     1.9160     1.3480 hc         1 PXS       0.037200
     97 H33        -13.5020     4.0940     0.2070 hc         1 PXS       0.036700
     98 H33A       -14.2420     3.2150    -1.1320 hc         1 PXS       0.036700
     99 H34        -15.9500     2.2550     0.4420 hc         1 PXS       0.036700
    100 H34A       -15.2100     3.1340     1.7810 hc         1 PXS       0.036700
    101 H35        -15.7310     5.3110     0.6400 hc         1 PXS       0.036700
    102 H35A       -16.4710     4.4330    -0.6990 hc         1 PXS       0.036700
    103 H36        -18.1820     3.4750     0.8750 hc         1 PXS       0.036700
    104 H36A       -17.4430     4.3530     2.2140 hc         1 PXS       0.036700
    105 H37        -17.9950     6.5400     1.0950 hc         1 PXS       0.031367
    106 H37A       -18.7420     5.6540    -0.2560 hc         1 PXS       0.031367
    107 H37B       -19.4520     5.5600     1.3710 hc         1 PXS       0.031367
@<TRIPOS>BOND
     1     1     2 1   
     2     1    40 1   
     3     1    41 1   
     4     1    42 1   
     5     2     3 1   
     6     2    43 1   
     7     2    44 1   
     8     3     4 1   
     9     3    45 1   
    10     3    46 1   
    11     4     5 1   
    12     4    47 1   
    13     4    48 1   
    14     5     6 1   
    15     5    49 1   
    16     5    50 1   
    17     6     7 1   
    18     6    51 1   
    19     6    52 1   
    20     7     8 1   
    21     7    53 1   
    22     7    54 1   
    23     8     9 1   
    24     8    55 1   
    25     8    56 1   
    26     9    10 1   
    27     9    57 1   
    28     9    58 1   
    29    10    11 1   
    30    10    59 1   
    31    10    60 1   
    32    11    12 1   
    33    11    61 1   
    34    11    62 1   
    35    12    13 1   
    36    12    63 1   
    37    12    64 1   
    38    13    14 1   
    39    13    65 1   
    40    13    66 1   
    41    14    15 1   
    42    14    67 1   
    43    14    68 1   
    44    15    16 1   
    45    15    69 1   
    46    15    70 1   
    47    16    17 1   
    48    16    39 2   
    49    17    18 1   
    50    18    19 1   
    51    18    71 1   
    52    18    72 1   
    53    19    20 1   
    54    19    21 1   
    55    19    73 1   
    56    20    74 1   
    57    20    75 1   
    58    20    76 1   
    59    21    22 1   
    60    22    23 1   
    61    22    38 2   
    62    23    24 1   
    63    23    77 1   
    64    23    78 1   
    65    24    25 1   
    66    24    79 1   
    67    24    80 1   
    68    25    26 1   
    69    25    81 1   
    70    25    82 1   
    71    26    27 1   
    72    26    83 1   
    73    26    84 1   
    74    27    28 1   
    75    27    85 1   
    76    27    86 1   
    77    28    29 1   
    78    28    87 1   
    79    28    88 1   
    80    29    30 1   
    81    29    89 1   
    82    29    90 1   
    83    30    31 1   
    84    30    91 1   
    85    30    92 1   
    86    31    32 1   
    87    31    93 1   
    88    31    94 1   
    89    32    33 1   
    90    32    95 1   
    91    32    96 1   
    92    33    34 1   
    93    33    97 1   
    94    33    98 1   
    95    34    35 1   
    96    34    99 1   
    97    34   100 1   
    98    35    36 1   
    99    35   101 1   
   100    35   102 1   
   101    36    37 1   
   102    36   103 1   
   103    36   104 1   
   104    37   105 1   
   105    37   106 1   
   106    37   107 1   
@<TRIPOS>SUBSTRUCTURE
     1 PXS         1 TEMP              0 ****  ****    0 ROOT
