@<TRIPOS>MOLECULE
PXS
  107   106     1     0     0
SMALL
bcc


@<TRIPOS>ATOM
      1 C01         19.1710     5.4880    -0.5380 c3         1 PXS      -0.088100
      2 C02         18.1950     4.6400     0.2650 c3         1 PXS      -0.075400
      3 C03         16.9070     4.3440    -0.4940 c3         1 PXS      -0.075400
      4 C04         15.9230     3.4920     0.2970 c3         1 PXS      -0.074400
      5 C05         14.6360     3.1930    -0.4630 c3         1 PXS      -0.074400
      6 C06         13.6550     2.3410     0.3320 c3         1 PXS      -0.074400
      7 C07         12.3660     2.0370    -0.4210 c3         1 PXS      -0.073400
      8 C08         11.3940     1.1820     0.3820 c3         1 PXS      -0.074400
      9 C09         10.1000     0.8680    -0.3590 c3         1 PXS      -0.073400
     10 C10          9.1430     0.0080     0.4570 c3         1 PXS      -0.074400
     11 C11          7.8420    -0.3160    -0.2670 c3         1 PXS      -0.073400
     12 C12          6.9120    -1.1950     0.5580 c3         1 PXS      -0.075400
     13 C13          5.6010    -1.5300    -0.1430 c3         1 PXS      -0.075400
     14 C14          4.7250    -2.4600     0.6850 c3         1 PXS      -0.069400
     15 C15          3.4130    -2.7940    -0.0070 c3         1 PXS      -0.136400
     16 C16          2.5840    -3.8030     0.7400 c          1 PXS       0.641100
     17 O17          1.4300    -4.0450     0.1240 os         1 PXS      -0.416900
     18 C18          0.5840    -5.0500     0.6820 c3         1 PXS       0.140400
     19 C19         -0.6100    -5.2510    -0.2210 c3         1 PXS       0.154100
     20 C20         -0.2460    -5.5730    -1.6590 c3         1 PXS      -0.110100
     21 O21         -1.4020    -4.0530    -0.1480 os         1 PXS      -0.423900
     22 C22         -2.7190    -4.1450    -0.3110 c          1 PXS       0.643100
     23 C23         -3.3920    -2.8110    -0.1310 c3         1 PXS      -0.137400
     24 C24         -4.8950    -2.8570    -0.3560 c3         1 PXS      -0.068400
     25 C25         -5.5610    -1.5110    -0.1020 c3         1 PXS      -0.075400
     26 C26         -7.0670    -1.5560    -0.3270 c3         1 PXS      -0.074400
     27 C27         -7.7680    -0.2370    -0.0300 c3         1 PXS      -0.073400
     28 C28         -9.2720    -0.2970    -0.2680 c3         1 PXS      -0.074400
     29 C29         -9.9920     1.0050     0.0560 c3         1 PXS      -0.073400
     30 C30        -11.4930     0.9370    -0.2000 c3         1 PXS      -0.074400
     31 C31        -12.2250     2.2300     0.1340 c3         1 PXS      -0.073400
     32 C32        -13.7250     2.1520    -0.1210 c3         1 PXS      -0.074400
     33 C33        -14.4650     3.4400     0.2140 c3         1 PXS      -0.074400
     34 C34        -15.9630     3.3600    -0.0540 c3         1 PXS      -0.074400
     35 C35        -16.7070     4.6460     0.2850 c3         1 PXS      -0.075400
     36 C36        -18.2030     4.5680     0.0080 c3         1 PXS      -0.074400
     37 C37        -18.9370     5.8560     0.3530 c3         1 PXS      -0.088100
     38 O38         -3.2890    -5.1780    -0.5580 o          1 PXS      -0.540000
     39 O39          2.9080    -4.3480     1.7650 o          1 PXS      -0.538000
     40 H01         19.4480     4.9920    -1.4700 hc         1 PXS       0.031367
     41 H01A        18.7310     6.4530    -0.7980 hc         1 PXS       0.031367
     42 H01B        20.0890     5.6830     0.0180 hc         1 PXS       0.031367
     43 H02         18.6730     3.6960     0.5470 hc         1 PXS       0.036700
     44 H02A        17.9530     5.1470     1.2040 hc         1 PXS       0.036700
     45 H03         16.4270     5.2880    -0.7750 hc         1 PXS       0.036700
     46 H03A        17.1510     3.8380    -1.4350 hc         1 PXS       0.036700
     47 H04         16.4040     2.5490     0.5790 hc         1 PXS       0.036700
     48 H04A        15.6780     3.9980     1.2370 hc         1 PXS       0.036700
     49 H05         14.1540     4.1350    -0.7470 hc         1 PXS       0.036700
     50 H05A        14.8800     2.6840    -1.4030 hc         1 PXS       0.036700
     51 H06         14.1390     1.4000     0.6160 hc         1 PXS       0.037200
     52 H06A        13.4130     2.8500     1.2720 hc         1 PXS       0.037200
     53 H07         11.8780     2.9770    -0.7030 hc         1 PXS       0.037200
     54 H07A        12.6060     1.5280    -1.3610 hc         1 PXS       0.037200
     55 H08         11.8850     0.2440     0.6640 hc         1 PXS       0.037200
     56 H08A        11.1570     1.6910     1.3230 hc         1 PXS       0.037200
     57 H09          9.6030     1.8050    -0.6370 hc         1 PXS       0.037700
     58 H09A        10.3350     0.3600    -1.3000 hc         1 PXS       0.037700
     59 H10          9.6440    -0.9260     0.7330 hc         1 PXS       0.037700
     60 H10A         8.9140     0.5160     1.4000 hc         1 PXS       0.037700
     61 H11          7.3290     0.6160    -0.5310 hc         1 PXS       0.037200
     62 H11A         8.0680    -0.8160    -1.2160 hc         1 PXS       0.037200
     63 H12          7.4290    -2.1260     0.8160 hc         1 PXS       0.039700
     64 H12A         6.6940    -0.6990     1.5100 hc         1 PXS       0.039700
     65 H13          5.0590    -0.6050    -0.3670 hc         1 PXS       0.037200
     66 H13A         5.8150    -1.9980    -1.1110 hc         1 PXS       0.037200
     67 H14          5.2770    -3.3810     0.8900 hc         1 PXS       0.054200
     68 H14A         4.5220    -2.0000     1.6560 hc         1 PXS       0.054200
     69 H15          2.8130    -1.8910    -0.1600 hc         1 PXS       0.071700
     70 H15A         3.6000    -3.1930    -1.0100 hc         1 PXS       0.071700
     71 H18          1.1200    -5.9990     0.7580 h1         1 PXS       0.059700
     72 H18A         0.2580    -4.7640     1.6850 h1         1 PXS       0.059700
     73 H19         -1.1730    -6.0840     0.2080 h1         1 PXS       0.069700
     74 H20          0.4300    -6.4280    -1.6860 hc         1 PXS       0.051700
     75 H20A        -1.1320    -5.8380    -2.2350 hc         1 PXS       0.051700
     76 H20B         0.2450    -4.7340    -2.1510 hc         1 PXS       0.051700
     77 H23         -3.1680    -2.4550     0.8800 hc         1 PXS       0.071700
     78 H23A        -2.9210    -2.0880    -0.8050 hc         1 PXS       0.071700
     79 H24         -5.1040    -3.1790    -1.3800 hc         1 PXS       0.054200
     80 H24A        -5.3440    -3.6070     0.3000 hc         1 PXS       0.054200
     81 H25         -5.3570    -1.1900     0.9260 hc         1 PXS       0.037700
     82 H25A        -5.1170    -0.7480    -0.7510 hc         1 PXS       0.037700
     83 H26         -7.2670    -1.8510    -1.3630 hc         1 PXS       0.039700
     84 H26A        -7.5020    -2.3440     0.2990 hc         1 PXS       0.039700
     85 H27         -7.5770     0.0520     1.0100 hc         1 PXS       0.037200
     86 H27A        -7.3330     0.5560    -0.6480 hc         1 PXS       0.037200
     87 H28         -9.4600    -0.5670    -1.3130 hc         1 PXS       0.037700
     88 H28A        -9.7010    -1.1070     0.3330 hc         1 PXS       0.037700
     89 H29         -9.8160     1.2680     1.1050 hc         1 PXS       0.036700
     90 H29A        -9.5590     1.8190    -0.5350 hc         1 PXS       0.036700
     91 H30        -11.6670     0.6810    -1.2510 hc         1 PXS       0.037200
     92 H30A       -11.9230     0.1160     0.3840 hc         1 PXS       0.037200
     93 H31        -12.0500     2.4880     1.1850 hc         1 PXS       0.036700
     94 H31A       -11.7990     3.0520    -0.4520 hc         1 PXS       0.036700
     95 H32        -13.8990     1.8960    -1.1730 hc         1 PXS       0.037200
     96 H32A       -14.1500     1.3270     0.4620 hc         1 PXS       0.037200
     97 H33        -14.3000     3.6920     1.2680 hc         1 PXS       0.036700
     98 H33A       -14.0360     4.2670    -0.3630 hc         1 PXS       0.036700
     99 H34        -16.1280     3.1120    -1.1090 hc         1 PXS       0.036700
    100 H34A       -16.3910     2.5310     0.5200 hc         1 PXS       0.036700
    101 H35        -16.5480     4.8910     1.3410 hc         1 PXS       0.036700
    102 H35A       -16.2760     5.4770    -0.2840 hc         1 PXS       0.036700
    103 H36        -18.3620     4.3260    -1.0470 hc         1 PXS       0.036700
    104 H36A       -18.6330     3.7370     0.5760 hc         1 PXS       0.036700
    105 H37        -18.8310     6.0980     1.4130 hc         1 PXS       0.031367
    106 H37A       -18.5400     6.7000    -0.2150 hc         1 PXS       0.031367
    107 H37B       -20.0030     5.7840     0.1360 hc         1 PXS       0.031367
@<TRIPOS>BOND
     1     1     2 1   
     2     1    40 1   
     3     1    41 1   
     4     1    42 1   
     5     2     3 1   
     6     2    43 1   
     7     2    44 1   
     8     3     4 1   
     9     3    45 1   
    10     3    46 1   
    11     4     5 1   
    12     4    47 1   
    13     4    48 1   
    14     5     6 1   
    15     5    49 1   
    16     5    50 1   
    17     6     7 1   
    18     6    51 1   
    19     6    52 1   
    20     7     8 1   
    21     7    53 1   
    22     7    54 1   
    23     8     9 1   
    24     8    55 1   
    25     8    56 1   
    26     9    10 1   
    27     9    57 1   
    28     9    58 1   
    29    10    11 1   
    30    10    59 1   
    31    10    60 1   
    32    11    12 1   
    33    11    61 1   
    34    11    62 1   
    35    12    13 1   
    36    12    63 1   
    37    12    64 1   
    38    13    14 1   
    39    13    65 1   
    40    13    66 1   
    41    14    15 1   
    42    14    67 1   
    43    14    68 1   
    44    15    16 1   
    45    15    69 1   
    46    15    70 1   
    47    16    17 1   
    48    16    39 2   
    49    17    18 1   
    50    18    19 1   
    51    18    71 1   
    52    18    72 1   
    53    19    20 1   
    54    19    21 1   
    55    19    73 1   
    56    20    74 1   
    57    20    75 1   
    58    20    76 1   
    59    21    22 1   
    60    22    23 1   
    61    22    38 2   
    62    23    24 1   
    63    23    77 1   
    64    23    78 1   
    65    24    25 1   
    66    24    79 1   
    67    24    80 1   
    68    25    26 1   
    69    25    81 1   
    70    25    82 1   
    71    26    27 1   
    72    26    83 1   
    73    26    84 1   
    74    27    28 1   
    75    27    85 1   
    76    27    86 1   
    77    28    29 1   
    78    28    87 1   
    79    28    88 1   
    80    29    30 1   
    81    29    89 1   
    82    29    90 1   
    83    30    31 1   
    84    30    91 1   
    85    30    92 1   
    86    31    32 1   
    87    31    93 1   
    88    31    94 1   
    89    32    33 1   
    90    32    95 1   
    91    32    96 1   
    92    33    34 1   
    93    33    97 1   
    94    33    98 1   
    95    34    35 1   
    96    34    99 1   
    97    34   100 1   
    98    35    36 1   
    99    35   101 1   
   100    35   102 1   
   101    36    37 1   
   102    36   103 1   
   103    36   104 1   
   104    37   105 1   
   105    37   106 1   
   106    37   107 1   
@<TRIPOS>SUBSTRUCTURE
     1 PXS         1 TEMP              0 ****  ****    0 ROOT
