@<TRIPOS>MOLECULE
PXT
  129   137     1     0     0
SMALL
abcg2


@<TRIPOS>ATOM
      1 C7          -0.0450    -3.3070     0.8920 c5         1 PXT       0.397000
      2 C11         -3.4130    -3.1120     0.6140 c3         1 PXT       0.181300
      3 O12          7.6880    -1.4910    -2.3410 oh         1 PXT      -0.719000
      4 C13         -4.6590    -1.2730     1.9440 c5         1 PXT      -0.215400
      5 C18         -7.1150     1.7970    -1.6880 c5         1 PXT       0.167000
      6 C14         -6.0180    -0.7070     1.6610 c          1 PXT       0.580100
      7 C15         -6.5240    -1.3940     0.3990 c5         1 PXT       0.064300
      8 C17         -7.5450     0.6120    -0.8150 c6         1 PXT      -0.133400
      9 O6          -6.6200     0.1160     2.3010 o          1 PXT      -0.506100
     10 O5          -5.6680    -2.4930     0.2060 os         1 PXT      -0.436000
     11 C12         -4.7180    -2.6430     1.2730 c5         1 PXT       0.194000
     12 C42         -5.2530    -3.6920     2.2450 c3         1 PXT      -0.113100
     13 O4          -3.0710    -2.2000    -0.3900 oh         1 PXT      -0.708000
     14 C10         -2.2660    -3.3390     1.6090 c5         1 PXT       0.126300
     15 C9          -1.6050    -2.0780     2.1860 c5         1 PXT      -0.104400
     16 C8          -0.1220    -2.4130     2.1220 c5         1 PXT      -0.126400
     17 O3          -1.2200    -4.0560     0.9350 os         1 PXT      -0.448000
     18 O2          -0.1430    -2.5320    -0.2960 os         1 PXT      -0.503000
     19 C6           1.1790    -4.2210     0.8240 c6         1 PXT      -0.090400
     20 C5           1.5590    -4.5120    -0.6220 c6         1 PXT      -0.066400
     21 C4           1.9200    -3.2090    -1.3460 c6         1 PXT      -0.108400
     22 C3           1.0900    -2.0430    -0.7910 c6         1 PXT       0.196300
     23 C2           0.7450    -0.9860    -1.8380 c3         1 PXT      -0.114700
     24 C41         -0.0430     0.1890    -1.2440 c3         1 PXT      -0.094100
     25 C1           1.9690    -0.4030    -2.5080 c          1 PXT       0.598100
     26 C16         -6.4340    -0.4350    -0.7870 c6         1 PXT       0.173300
     27 C43         -8.1420     2.9060    -1.6750 c3         1 PXT      -0.076100
     28 C19         -6.7100     1.3360    -3.1030 c5         1 PXT      -0.104400
     29 O8          -5.8850     2.2830    -1.1430 os         1 PXT      -0.447000
     30 C21         -4.9480     1.2970    -1.4660 c5         1 PXT       0.381000
     31 O7          -5.1650     0.1640    -0.6770 os         1 PXT      -0.447000
     32 C20         -5.2160     1.0110    -2.9550 c5         1 PXT      -0.134400
     33 C22         -3.5260     1.7340    -1.1580 c5         1 PXT       0.198300
     34 O9          -3.3610     1.9290     0.2310 os         1 PXT      -0.443000
     35 C25         -2.6740     3.1500     0.5110 c5         1 PXT       0.180000
     36 C44         -3.6930     4.1880     0.9800 c3         1 PXT      -0.104100
     37 C24         -2.0500     3.5490    -0.8320 c5         1 PXT      -0.104400
     38 C23         -3.0670     3.0210    -1.8360 c5         1 PXT      -0.108400
     39 C26         -1.6500     2.8520     1.6070 c3         1 PXT      -0.071400
     40 C27         -0.6220     3.9850     1.8420 c3         1 PXT      -0.022500
     41 C45         -0.4330     4.3070     3.3290 c3         1 PXT      -0.082100
     42 C28          0.6870     3.7300     1.1330 c2         1 PXT      -0.202200
     43 C29          1.5340     2.7030     1.3070 ce         1 PXT      -0.078200
     44 C46          1.3450     1.6050     2.3120 c3         1 PXT      -0.056900
     45 C30          2.6940     2.5930     0.4200 ce         1 PXT      -0.183000
     46 C31          3.4950     1.5280     0.3520 c2         1 PXT      -0.199200
     47 C32          4.5480     1.3300    -0.6910 c5         1 PXT       0.204500
     48 O11          5.5120     0.4030    -0.2250 os         1 PXT      -0.445000
     49 C35          5.8820    -0.5100    -1.2390 c5         1 PXT       0.199300
     50 C34          5.1970    -0.0350    -2.5220 c5         1 PXT      -0.118400
     51 C33          4.0020     0.7300    -1.9920 c5         1 PXT       0.144300
     52 O10          2.9250    -0.1380    -1.6290 os         1 PXT      -0.445100
     53 C36          7.4140    -0.5600    -1.3300 c6         1 PXT       0.445200
     54 O14          7.8260     0.7210    -1.6800 os         1 PXT      -0.457000
     55 C40          9.1780     1.0310    -1.4050 c6         1 PXT       0.157600
     56 C39          9.4290     0.9970     0.0840 c6         1 PXT      -0.058200
     57 C38          8.9080    -0.2810     0.6720 c2         1 PXT      -0.203400
     58 C47          9.4550    -0.6590     2.0160 c3         1 PXT      -0.043900
     59 C37          8.0190    -1.0050    -0.0120 c2         1 PXT       0.025900
     60 O13          7.5130    -2.2050     0.3690 oh         1 PXT      -0.530100
     61 H11         -3.6350    -4.1020     0.1800 h1         1 PXT       0.052700
     62 HO12         8.6000    -1.7960    -2.2770 ho         1 PXT       0.513000
     63 H131        -3.9420    -0.6080     1.4530 hc         1 PXT       0.099200
     64 H132        -4.4370    -1.3080     3.0100 hc         1 PXT       0.099200
     65 H15         -7.5640    -1.7230     0.5290 h1         1 PXT       0.077700
     66 H171        -7.7610     0.9810     0.1910 hc         1 PXT       0.066200
     67 H172        -8.4620     0.1600    -1.1990 hc         1 PXT       0.066200
     68 H421        -4.6070    -3.8110     3.1140 hc         1 PXT       0.043700
     69 H422        -6.2370    -3.4040     2.6200 hc         1 PXT       0.043700
     70 H423        -5.3510    -4.6640     1.7580 hc         1 PXT       0.043700
     71 HO4         -2.1470    -2.3350    -0.6340 ho         1 PXT       0.528000
     72 H10         -2.6150    -3.9870     2.4180 h1         1 PXT       0.064700
     73 H91         -1.8290    -1.1950     1.5860 hc         1 PXT       0.066700
     74 H92         -1.9450    -1.8790     3.2010 hc         1 PXT       0.066700
     75 H81          0.1950    -2.9810     3.0000 hc         1 PXT       0.059700
     76 H82          0.5260    -1.5380     2.0540 hc         1 PXT       0.059700
     77 H61          2.0190    -3.7430     1.3380 hc         1 PXT       0.058200
     78 H62          0.9680    -5.1380     1.3780 hc         1 PXT       0.058200
     79 H51          2.3970    -5.2070    -0.6590 hc         1 PXT       0.053200
     80 H52          0.7250    -5.0050    -1.1270 hc         1 PXT       0.053200
     81 H41          2.9810    -2.9870    -1.2130 hc         1 PXT       0.053700
     82 H42          1.7510    -3.3230    -2.4210 hc         1 PXT       0.053700
     83 H3           1.6390    -1.5560     0.0270 h1         1 PXT       0.048700
     84 H2           0.1470    -1.4600    -2.6210 hc         1 PXT       0.091700
     85 H411         0.5340     0.7090    -0.4790 hc         1 PXT       0.052033
     86 H412        -0.2940     0.9140    -2.0190 hc         1 PXT       0.052033
     87 H413        -0.9750    -0.1480    -0.7940 hc         1 PXT       0.052033
     88 H16         -6.4910    -1.0410    -1.7050 h1         1 PXT       0.054700
     89 H431        -7.7900     3.7700    -2.2410 hc         1 PXT       0.045367
     90 H432        -9.0690     2.5590    -2.1310 hc         1 PXT       0.045367
     91 H433        -8.3690     3.2290    -0.6580 hc         1 PXT       0.045367
     92 H191        -7.3000     0.4820    -3.4380 hc         1 PXT       0.053700
     93 H192        -6.8690     2.1410    -3.8220 hc         1 PXT       0.053700
     94 H201        -4.9600    -0.0140    -3.2230 hc         1 PXT       0.063200
     95 H202        -4.6120     1.6680    -3.5820 hc         1 PXT       0.063200
     96 H22         -2.8850     0.9030    -1.4840 h1         1 PXT       0.063700
     97 H441        -4.2040     3.8390     1.8790 hc         1 PXT       0.043700
     98 H442        -3.2160     5.1410     1.2140 hc         1 PXT       0.043700
     99 H443        -4.4510     4.3680     0.2180 hc         1 PXT       0.043700
    100 H241        -1.8820     4.6230    -0.9220 hc         1 PXT       0.054200
    101 H242        -1.0840     3.0550    -0.9730 hc         1 PXT       0.054200
    102 H231        -2.6350     2.8350    -2.8190 hc         1 PXT       0.060700
    103 H232        -3.8920     3.7240    -1.9630 hc         1 PXT       0.060700
    104 H261        -2.1910     2.6430     2.5360 hc         1 PXT       0.054200
    105 H262        -1.1390     1.9250     1.3390 hc         1 PXT       0.054200
    106 H27         -1.0300     4.8990     1.4000 hc         1 PXT       0.047700
    107 H451        -0.0810     3.4480     3.9020 hc         1 PXT       0.035367
    108 H452         0.2900     5.1120     3.4650 hc         1 PXT       0.035367
    109 H453        -1.3780     4.6290     3.7700 hc         1 PXT       0.035367
    110 H28          0.9520     4.4570     0.3690 ha         1 PXT       0.166000
    111 H461         1.2980     0.6290     1.8230 hc         1 PXT       0.041700
    112 H462         2.1880     1.5640     3.0050 hc         1 PXT       0.041700
    113 H463         0.4390     1.7100     2.9000 hc         1 PXT       0.041700
    114 H30          2.8520     3.4180    -0.2700 ha         1 PXT       0.167000
    115 H31          3.3520     0.6880     1.0240 ha         1 PXT       0.188000
    116 H32          5.0300     2.2850    -0.9470 h1         1 PXT       0.064700
    117 H35          5.5180    -1.5100    -0.9760 h1         1 PXT       0.083700
    118 H341         5.8270     0.6550    -3.0850 hc         1 PXT       0.083200
    119 H342         4.9260    -0.8540    -3.1860 hc         1 PXT       0.083200
    120 H33          3.6430     1.5040    -2.6710 h1         1 PXT       0.079700
    121 H401         9.8570     0.3360    -1.9160 h1         1 PXT       0.047700
    122 H402         9.3590     2.0230    -1.8200 h1         1 PXT       0.047700
    123 H391        10.5050     1.0780     0.2660 hc         1 PXT       0.058700
    124 H392         8.9680     1.8600     0.5770 hc         1 PXT       0.058700
    125 H471         9.4130     0.2000     2.6890 hc         1 PXT       0.039367
    126 H472         8.9190    -1.4680     2.5140 hc         1 PXT       0.039367
    127 H473        10.5040    -0.9550     1.9470 hc         1 PXT       0.039367
    128 HO13         7.9480    -2.5130     1.1710 ho         1 PXT       0.461000
    129 O1           2.0420    -0.1290    -3.6800 o          1 PXT      -0.484000
@<TRIPOS>BOND
     1     1    16 1   
     2     1    17 1   
     3     1    18 1   
     4     1    19 1   
     5     2    11 1   
     6     2    13 1   
     7     2    14 1   
     8     2    61 1   
     9     3    53 1   
    10     3    62 1   
    11     4     6 1   
    12     4    11 1   
    13     4    63 1   
    14     4    64 1   
    15     5     8 1   
    16     5    27 1   
    17     5    28 1   
    18     5    29 1   
    19     6     7 1   
    20     6     9 2   
    21     7    10 1   
    22     7    26 1   
    23     7    65 1   
    24     8    26 1   
    25     8    66 1   
    26     8    67 1   
    27    10    11 1   
    28    11    12 1   
    29    12    68 1   
    30    12    69 1   
    31    12    70 1   
    32    13    71 1   
    33    14    15 1   
    34    14    17 1   
    35    14    72 1   
    36    15    16 1   
    37    15    73 1   
    38    15    74 1   
    39    16    75 1   
    40    16    76 1   
    41    18    22 1   
    42    19    20 1   
    43    19    77 1   
    44    19    78 1   
    45    20    21 1   
    46    20    79 1   
    47    20    80 1   
    48    21    22 1   
    49    21    81 1   
    50    21    82 1   
    51    22    23 1   
    52    22    83 1   
    53    23    24 1   
    54    23    25 1   
    55    23    84 1   
    56    24    85 1   
    57    24    86 1   
    58    24    87 1   
    59    25    52 1   
    60    25   129 2   
    61    26    31 1   
    62    26    88 1   
    63    27    89 1   
    64    27    90 1   
    65    27    91 1   
    66    28    32 1   
    67    28    92 1   
    68    28    93 1   
    69    29    30 1   
    70    30    31 1   
    71    30    32 1   
    72    30    33 1   
    73    32    94 1   
    74    32    95 1   
    75    33    34 1   
    76    33    38 1   
    77    33    96 1   
    78    34    35 1   
    79    35    36 1   
    80    35    37 1   
    81    35    39 1   
    82    36    97 1   
    83    36    98 1   
    84    36    99 1   
    85    37    38 1   
    86    37   100 1   
    87    37   101 1   
    88    38   102 1   
    89    38   103 1   
    90    39    40 1   
    91    39   104 1   
    92    39   105 1   
    93    40    41 1   
    94    40    42 1   
    95    40   106 1   
    96    41   107 1   
    97    41   108 1   
    98    41   109 1   
    99    42    43 2   
   100    42   110 1   
   101    43    44 1   
   102    43    45 1   
   103    44   111 1   
   104    44   112 1   
   105    44   113 1   
   106    45    46 2   
   107    45   114 1   
   108    46    47 1   
   109    46   115 1   
   110    47    48 1   
   111    47    51 1   
   112    47   116 1   
   113    48    49 1   
   114    49    50 1   
   115    49    53 1   
   116    49   117 1   
   117    50    51 1   
   118    50   118 1   
   119    50   119 1   
   120    51    52 1   
   121    51   120 1   
   122    53    54 1   
   123    53    59 1   
   124    54    55 1   
   125    55    56 1   
   126    55   121 1   
   127    55   122 1   
   128    56    57 1   
   129    56   123 1   
   130    56   124 1   
   131    57    58 1   
   132    57    59 2   
   133    58   125 1   
   134    58   126 1   
   135    58   127 1   
   136    59    60 1   
   137    60   128 1   
@<TRIPOS>SUBSTRUCTURE
     1 PXT         1 TEMP              0 ****  ****    0 ROOT
