@<TRIPOS>MOLECULE
PXT
  129   137     1     0     0
SMALL
No Charge or Current Charge


@<TRIPOS>ATOM
      1 C7           0.5330    -3.7310     0.4400 c5         1 PXT       0.397000
      2 C11         -2.8540    -3.4770     0.2930 c3         1 PXT       0.181300
      3 O12          6.8550    -2.3350    -1.1980 oh         1 PXT      -0.719000
      4 C13         -4.0560    -1.5560     1.6820 c5         1 PXT      -0.215400
      5 C18         -7.6970     1.4950    -1.3140 c5         1 PXT       0.167000
      6 C14         -5.5110    -1.1150     1.7420 c          1 PXT       0.580100
      7 C15         -6.0990    -1.6580     0.4270 c5         1 PXT       0.064300
      8 C17         -7.6780     0.1240    -0.5750 c6         1 PXT      -0.133400
      9 O6          -6.1430    -0.7610     2.7310 o          1 PXT      -0.506100
     10 O5          -5.1680    -2.6770    -0.0520 os         1 PXT      -0.436000
     11 C12         -4.1730    -2.9380     0.9780 c5         1 PXT       0.194000
     12 C42         -4.7530    -4.0280     1.9260 c3         1 PXT      -0.113100
     13 O4          -2.3500    -2.5430    -0.6830 oh         1 PXT      -0.708000
     14 C10         -1.6780    -3.8720     1.2470 c5         1 PXT       0.126300
     15 C9          -0.9560    -2.7020     2.0020 c5         1 PXT      -0.104400
     16 C8           0.5410    -3.0820     1.8460 c5         1 PXT      -0.126400
     17 O3          -0.6420    -4.5490     0.4880 os         1 PXT      -0.448000
     18 O2           0.2870    -2.6960    -0.5530 os         1 PXT      -0.503000
     19 C6           1.7820    -4.5880     0.0900 c6         1 PXT      -0.090400
     20 C5           2.1540    -4.4590    -1.4010 c6         1 PXT      -0.066400
     21 C4           2.4290    -2.9770    -1.7560 c6         1 PXT      -0.108400
     22 C3           1.4430    -1.9890    -1.0550 c6         1 PXT       0.196300
     23 C2           0.9550    -0.8320    -1.9750 c3         1 PXT      -0.114700
     24 C41          0.0350     0.1900    -1.2510 c3         1 PXT      -0.094100
     25 C1           2.1530    -0.1080    -2.6040 c          1 PXT       0.598100
     26 C16         -6.2860    -0.5580    -0.6510 c6         1 PXT       0.173300
     27 C43         -9.0570     2.1970    -1.0980 c3         1 PXT      -0.076100
     28 C19         -7.2660     1.4080    -2.8170 c5         1 PXT      -0.104400
     29 O8          -6.6510     2.2980    -0.7520 os         1 PXT      -0.447000
     30 C21         -5.4390     1.7000    -1.2370 c5         1 PXT       0.381000
     31 O7          -5.2420     0.4370    -0.5490 os         1 PXT      -0.447000
     32 C20         -5.6980     1.4350    -2.7560 c5         1 PXT      -0.134400
     33 C22         -4.1600     2.6160    -0.9980 c5         1 PXT       0.198300
     34 O9          -3.9700     2.8550     0.4170 os         1 PXT      -0.443000
     35 C25         -3.1410     4.0290     0.5790 c5         1 PXT       0.180000
     36 C44         -3.7900     4.8710     1.7020 c3         1 PXT      -0.104100
     37 C24         -3.1930     4.7440    -0.8230 c5         1 PXT      -0.104400
     38 C23         -4.3910     4.0550    -1.5250 c5         1 PXT      -0.108400
     39 C26         -1.7110     3.5490     0.9750 c3         1 PXT      -0.071400
     40 C27         -0.6160     4.6470     1.1550 c3         1 PXT      -0.022500
     41 C45         -0.4320     5.1300     2.6150 c3         1 PXT      -0.082100
     42 C28          0.7020     4.2350     0.5080 c2         1 PXT      -0.202200
     43 C29          1.5800     3.2590     0.8530 ce         1 PXT      -0.078200
     44 C46          1.3830     2.3110     2.0340 c3         1 PXT      -0.056900
     45 C30          2.7430     3.0120    -0.0200 ce         1 PXT      -0.183000
     46 C31          3.7560     2.1440     0.2270 c2         1 PXT      -0.199200
     47 C32          4.7620     1.9720    -0.9120 c5         1 PXT       0.204500
     48 O11          5.8700     1.2000    -0.3940 os         1 PXT      -0.445000
     49 C35          5.7200    -0.1650    -0.8630 c5         1 PXT       0.199300
     50 C34          5.2580     0.0490    -2.3280 c5         1 PXT      -0.118400
     51 C33          4.1590     1.1210    -2.1020 c5         1 PXT       0.144300
     52 O10          2.9620     0.4320    -1.6360 os         1 PXT      -0.445100
     53 C36          7.0310    -1.0210    -0.6650 c6         1 PXT       0.445200
     54 O14          8.1170    -0.4170    -1.4090 os         1 PXT      -0.457000
     55 C40          9.4340    -0.9050    -1.0860 c6         1 PXT       0.157600
     56 C39          9.7720    -0.5610     0.3820 c6         1 PXT      -0.058200
     57 C38          8.6380    -0.9560     1.3250 c2         1 PXT      -0.203400
     58 C47          9.0610    -1.0900     2.7830 c3         1 PXT      -0.043900
     59 C37          7.3980    -1.1680     0.8390 c2         1 PXT       0.025900
     60 O13          6.3850    -1.6040     1.6200 oh         1 PXT      -0.530100
     61 H11         -3.1390    -4.4020    -0.2270 h1         1 PXT       0.052700
     62 HO12         6.5230    -2.8510    -0.4320 ho         1 PXT       0.513000
     63 H131        -3.5190    -0.8750     1.0140 hc         1 PXT       0.099200
     64 H132        -3.5990    -1.5700     2.6750 hc         1 PXT       0.099200
     65 H15         -7.0610    -2.1390     0.6470 h1         1 PXT       0.077700
     66 H171        -7.9540     0.2800     0.4770 hc         1 PXT       0.066200
     67 H172        -8.4400    -0.5440    -0.9980 hc         1 PXT       0.066200
     68 H421        -4.1360    -4.1440     2.8260 hc         1 PXT       0.043700
     69 H422        -5.7680    -3.7910     2.2640 hc         1 PXT       0.043700
     70 H423        -4.7980    -5.0040     1.4270 hc         1 PXT       0.043700
     71 HO4         -1.3590    -2.6670    -0.6720 ho         1 PXT       0.528000
     72 H10         -2.0570    -4.6040     1.9720 h1         1 PXT       0.064700
     73 H91         -1.1570    -1.7240     1.5500 hc         1 PXT       0.066700
     74 H92         -1.2600    -2.6360     3.0530 hc         1 PXT       0.066700
     75 H81          0.8550    -3.8030     2.6090 hc         1 PXT       0.059700
     76 H82          1.2070    -2.2150     1.9190 hc         1 PXT       0.059700
     77 H61          2.6330    -4.2690     0.7060 hc         1 PXT       0.058200
     78 H62          1.5980    -5.6410     0.3430 hc         1 PXT       0.058200
     79 H51          3.0310    -5.0770    -1.6350 hc         1 PXT       0.053200
     80 H52          1.3270    -4.8400    -2.0170 hc         1 PXT       0.053200
     81 H41          3.4560    -2.7140    -1.4690 hc         1 PXT       0.053700
     82 H42          2.3840    -2.8660    -2.8480 hc         1 PXT       0.053700
     83 H3           1.9600    -1.5400    -0.1940 h1         1 PXT       0.048700
     84 H2           0.3820    -1.2640    -2.8040 hc         1 PXT       0.091700
     85 H411         0.5470     0.6370    -0.3910 hc         1 PXT       0.052033
     86 H412        -0.2560     0.9990    -1.9320 hc         1 PXT       0.052033
     87 H413        -0.8810    -0.2860    -0.8860 hc         1 PXT       0.052033
     88 H16         -6.2050    -1.0330    -1.6400 h1         1 PXT       0.054700
     89 H431        -9.0600     3.1980    -1.5440 hc         1 PXT       0.045367
     90 H432        -9.8720     1.6250    -1.5560 hc         1 PXT       0.045367
     91 H433        -9.2840     2.3080    -0.0310 hc         1 PXT       0.045367
     92 H191        -7.6490     0.5060    -3.3080 hc         1 PXT       0.053700
     93 H192        -7.6440     2.2640    -3.3890 hc         1 PXT       0.053700
     94 H201        -5.2470     0.4960    -3.0940 hc         1 PXT       0.063200
     95 H202        -5.2950     2.2190    -3.4050 hc         1 PXT       0.063200
     96 H22         -3.2520     2.1610    -1.4190 h1         1 PXT       0.063700
     97 H441        -3.7130     4.3710     2.6740 hc         1 PXT       0.043700
     98 H442        -3.3170     5.8560     1.7870 hc         1 PXT       0.043700
     99 H443        -4.8550     5.0410     1.4980 hc         1 PXT       0.043700
    100 H241        -3.3270     5.8290    -0.7430 hc         1 PXT       0.054200
    101 H242        -2.2680     4.5840    -1.3900 hc         1 PXT       0.054200
    102 H231        -4.3360     4.1390    -2.6150 hc         1 PXT       0.060700
    103 H232        -5.3480     4.4770    -1.1970 hc         1 PXT       0.060700
    104 H261        -1.7760     2.9530     1.8920 hc         1 PXT       0.054200
    105 H262        -1.3670     2.8480     0.2040 hc         1 PXT       0.054200
    106 H27         -0.9590     5.5300     0.6020 hc         1 PXT       0.047700
    107 H451        -0.1470     4.3100     3.2830 hc         1 PXT       0.035367
    108 H452         0.3510     5.8950     2.6660 hc         1 PXT       0.035367
    109 H453        -1.3540     5.5720     3.0070 hc         1 PXT       0.035367
    110 H28          0.9170     4.8370    -0.3770 ha         1 PXT       0.166000
    111 H461         1.6600     1.2810     1.7810 hc         1 PXT       0.041700
    112 H462         1.9930     2.6210     2.8910 hc         1 PXT       0.041700
    113 H463         0.3450     2.2600     2.3700 hc         1 PXT       0.041700
    114 H30          2.7380     3.5620    -0.9630 ha         1 PXT       0.167000
    115 H31          3.8300     1.5540     1.1390 ha         1 PXT       0.188000
    116 H32          5.1490     2.9380    -1.2650 h1         1 PXT       0.064700
    117 H35          4.9180    -0.6410    -0.2820 h1         1 PXT       0.083700
    118 H341         6.0700     0.4330    -2.9550 hc         1 PXT       0.083200
    119 H342         4.8860    -0.8690    -2.7940 hc         1 PXT       0.083200
    120 H33          3.9370     1.7380    -2.9840 h1         1 PXT       0.079700
    121 H401         9.4710    -1.9930    -1.2410 h1         1 PXT       0.047700
    122 H402        10.1670    -0.4410    -1.7600 h1         1 PXT       0.047700
    123 H391        10.6970    -1.0860     0.6580 hc         1 PXT       0.058700
    124 H392         9.9800     0.5130     0.4800 hc         1 PXT       0.058700
    125 H471         9.4930    -0.1510     3.1500 hc         1 PXT       0.039367
    126 H472         8.2300    -1.3440     3.4510 hc         1 PXT       0.039367
    127 H473         9.8220    -1.8700     2.9000 hc         1 PXT       0.039367
    128 HO13         6.7250    -1.6560     2.5380 ho         1 PXT       0.461000
    129 O1           2.3520    -0.0380    -3.8090 o          1 PXT      -0.484000
@<TRIPOS>BOND
     1     1    16 1   
     2     1    17 1   
     3     1    18 1   
     4     1    19 1   
     5     2    11 1   
     6     2    13 1   
     7     2    14 1   
     8     2    61 1   
     9     3    53 1   
    10     3    62 1   
    11     4     6 1   
    12     4    11 1   
    13     4    63 1   
    14     4    64 1   
    15     5     8 1   
    16     5    27 1   
    17     5    28 1   
    18     5    29 1   
    19     6     7 1   
    20     6     9 2   
    21     7    10 1   
    22     7    26 1   
    23     7    65 1   
    24     8    26 1   
    25     8    66 1   
    26     8    67 1   
    27    10    11 1   
    28    11    12 1   
    29    12    68 1   
    30    12    69 1   
    31    12    70 1   
    32    13    71 1   
    33    14    15 1   
    34    14    17 1   
    35    14    72 1   
    36    15    16 1   
    37    15    73 1   
    38    15    74 1   
    39    16    75 1   
    40    16    76 1   
    41    18    22 1   
    42    19    20 1   
    43    19    77 1   
    44    19    78 1   
    45    20    21 1   
    46    20    79 1   
    47    20    80 1   
    48    21    22 1   
    49    21    81 1   
    50    21    82 1   
    51    22    23 1   
    52    22    83 1   
    53    23    24 1   
    54    23    25 1   
    55    23    84 1   
    56    24    85 1   
    57    24    86 1   
    58    24    87 1   
    59    25    52 1   
    60    25   129 2   
    61    26    31 1   
    62    26    88 1   
    63    27    89 1   
    64    27    90 1   
    65    27    91 1   
    66    28    32 1   
    67    28    92 1   
    68    28    93 1   
    69    29    30 1   
    70    30    31 1   
    71    30    32 1   
    72    30    33 1   
    73    32    94 1   
    74    32    95 1   
    75    33    34 1   
    76    33    38 1   
    77    33    96 1   
    78    34    35 1   
    79    35    36 1   
    80    35    37 1   
    81    35    39 1   
    82    36    97 1   
    83    36    98 1   
    84    36    99 1   
    85    37    38 1   
    86    37   100 1   
    87    37   101 1   
    88    38   102 1   
    89    38   103 1   
    90    39    40 1   
    91    39   104 1   
    92    39   105 1   
    93    40    41 1   
    94    40    42 1   
    95    40   106 1   
    96    41   107 1   
    97    41   108 1   
    98    41   109 1   
    99    42    43 2   
   100    42   110 1   
   101    43    44 1   
   102    43    45 1   
   103    44   111 1   
   104    44   112 1   
   105    44   113 1   
   106    45    46 2   
   107    45   114 1   
   108    46    47 1   
   109    46   115 1   
   110    47    48 1   
   111    47    51 1   
   112    47   116 1   
   113    48    49 1   
   114    49    50 1   
   115    49    53 1   
   116    49   117 1   
   117    50    51 1   
   118    50   118 1   
   119    50   119 1   
   120    51    52 1   
   121    51   120 1   
   122    53    54 1   
   123    53    59 1   
   124    54    55 1   
   125    55    56 1   
   126    55   121 1   
   127    55   122 1   
   128    56    57 1   
   129    56   123 1   
   130    56   124 1   
   131    57    58 1   
   132    57    59 2   
   133    58   125 1   
   134    58   126 1   
   135    58   127 1   
   136    59    60 1   
   137    60   128 1   
@<TRIPOS>SUBSTRUCTURE
     1 PXT         1 TEMP              0 ****  ****    0 ROOT
