@<TRIPOS>MOLECULE
PXV
   45    45     1     0     0
SMALL
No Charge or Current Charge


@<TRIPOS>ATOM
      1 C10         -5.9320    31.9010     7.9040 c3         1 PXV      -0.074400
      2 C13        -13.4730    26.6990    11.5820 ca         1 PXV      -0.187600
      3 C15        -14.5800    26.1080    13.6860 ca         1 PXV      -0.180500
      4 C20        -12.9670    25.3780    11.5090 ca         1 PXV      -0.035000
      5 C02        -13.1730    27.7390    10.5240 c          1 PXV       0.613700
      6 C04        -11.9430    28.2050     8.3710 c3         1 PXV       0.108000
      7 C05        -10.7760    29.1310     8.7800 c3         1 PXV      -0.104400
      8 C06         -9.4950    28.3720     9.2090 c3         1 PXV      -0.071400
      9 C07         -8.3310    29.2860     9.6640 c3         1 PXV      -0.073400
     10 C08         -7.7390    30.1780     8.5470 c3         1 PXV      -0.076400
     11 C09         -6.5230    31.0050     9.0190 c3         1 PXV      -0.073400
     12 C11         -4.7400    32.7720     8.3590 c3         1 PXV       0.162600
     13 C14        -14.2830    27.0490    12.6860 ca         1 PXV      -0.035000
     14 C16        -14.0770    24.8020    13.6070 ca         1 PXV       0.159100
     15 C18        -13.9370    22.5610    14.6320 c3         1 PXV       0.148900
     16 C19        -13.2670    24.4390    12.5120 ca         1 PXV      -0.180500
     17 N03        -12.3910    27.3350     9.4630 ns         1 PXV      -0.506900
     18 O01        -13.6010    28.8830    10.5980 o          1 PXV      -0.613100
     19 O12         -3.6160    31.9490     8.6970 oh         1 PXV      -0.671000
     20 O17        -14.4030    23.9230    14.6190 os         1 PXV      -0.346100
     21 H102        -6.7190    32.5670     7.5300 hc         1 PXV       0.045700
     22 H101        -5.6200    31.2770     7.0570 hc         1 PXV       0.045700
     23 H151       -15.2050    26.3930    14.5280 ha         1 PXV       0.126000
     24 H201       -12.3380    25.0580    10.6820 ha         1 PXV       0.123000
     25 H042       -12.7910    28.8160     8.0330 h1         1 PXV       0.055200
     26 H041       -11.6300    27.5760     7.5280 h1         1 PXV       0.055200
     27 H051       -10.5480    29.7800     7.9270 hc         1 PXV       0.054200
     28 H052       -11.1020    29.7860     9.5970 hc         1 PXV       0.054200
     29 H062        -9.1530    27.7380     8.3810 hc         1 PXV       0.033200
     30 H061        -9.7390    27.6980    10.0390 hc         1 PXV       0.033200
     31 H072        -7.5330    28.6500    10.0660 hc         1 PXV       0.039700
     32 H071        -8.6730    29.9190    10.4930 hc         1 PXV       0.039700
     33 H082        -8.5100    30.8650     8.1780 hc         1 PXV       0.036700
     34 H081        -7.4390    29.5450     7.7030 hc         1 PXV       0.036700
     35 H092        -5.7470    30.3230     9.3880 hc         1 PXV       0.044200
     36 H091        -6.8230    31.6360     9.8660 hc         1 PXV       0.044200
     37 H112        -4.4700    33.4570     7.5440 h1         1 PXV       0.020200
     38 H111        -5.0430    33.3820     9.2210 h1         1 PXV       0.020200
     39 H141       -14.6880    28.0560    12.7740 ha         1 PXV       0.123000
     40 H183       -14.3120    22.0400    15.5220 h1         1 PXV       0.044033
     41 H181       -14.2920    22.0190    13.7470 h1         1 PXV       0.044033
     42 H182       -12.8410    22.5230    14.6530 h1         1 PXV       0.044033
     43 H191       -12.8610    23.4360    12.4220 ha         1 PXV       0.126000
     44 H031       -12.0800    26.3740     9.4650 hn         1 PXV       0.310500
     45 H1          -2.8930    32.5540     8.9730 ho         1 PXV       0.438000
@<TRIPOS>BOND
     1     1    11 1   
     2     1    12 1   
     3     1    21 1   
     4     1    22 1   
     5     2     4 ar  
     6     2     5 1   
     7     2    13 ar  
     8     3    13 ar  
     9     3    14 ar  
    10     3    23 1   
    11     4    16 ar  
    12     4    24 1   
    13     5    17 1   
    14     5    18 2   
    15     6     7 1   
    16     6    17 1   
    17     6    25 1   
    18     6    26 1   
    19     7     8 1   
    20     7    27 1   
    21     7    28 1   
    22     8     9 1   
    23     8    29 1   
    24     8    30 1   
    25     9    10 1   
    26     9    31 1   
    27     9    32 1   
    28    10    11 1   
    29    10    33 1   
    30    10    34 1   
    31    11    35 1   
    32    11    36 1   
    33    12    19 1   
    34    12    37 1   
    35    12    38 1   
    36    13    39 1   
    37    14    16 ar  
    38    14    20 1   
    39    15    20 1   
    40    15    40 1   
    41    15    41 1   
    42    15    42 1   
    43    16    43 1   
    44    17    44 1   
    45    19    45 1   
@<TRIPOS>SUBSTRUCTURE
     1 PXV         1 TEMP              0 ****  ****    0 ROOT
