@<TRIPOS>MOLECULE
PXV
   45    45     1     0     0
SMALL
abcg2


@<TRIPOS>ATOM
      1 C10         -6.0020    31.7770     8.1290 c3         1 PXV      -0.074400
      2 C13        -13.5030    26.7850    11.4870 ca         1 PXV      -0.187600
      3 C15        -14.8140    25.9410    13.3390 ca         1 PXV      -0.180500
      4 C20        -12.6160    25.7230    11.6610 ca         1 PXV      -0.035000
      5 C02        -13.3110    27.8430    10.4510 c          1 PXV       0.613700
      6 C04        -12.1620    28.4500     8.3510 c3         1 PXV       0.108000
      7 C05        -10.9010    29.2180     8.7510 c3         1 PXV      -0.104400
      8 C06         -9.6850    28.3180     8.9670 c3         1 PXV      -0.071400
      9 C07         -8.4520    29.0510     9.4990 c3         1 PXV      -0.073400
     10 C08         -7.8630    30.0870     8.5430 c3         1 PXV      -0.076400
     11 C09         -6.5960    30.7440     9.0840 c3         1 PXV      -0.073400
     12 C11         -4.7600    32.4680     8.6580 c3         1 PXV       0.162600
     13 C14        -14.6000    26.8820    12.3510 ca         1 PXV      -0.035000
     14 C16        -13.9180    24.8770    13.5010 ca         1 PXV       0.159100
     15 C18        -13.3190    22.9030    14.7140 c3         1 PXV       0.148900
     16 C19        -12.8110    24.7740    12.6580 ca         1 PXV      -0.180500
     17 N03        -12.5930    27.4960     9.3640 ns         1 PXV      -0.506900
     18 O01        -13.7960    28.9730    10.5890 o          1 PXV      -0.613100
     19 O12         -3.7060    31.5030     8.7930 oh         1 PXV      -0.671000
     20 O17        -14.2000    24.0080    14.5010 os         1 PXV      -0.346100
     21 H102        -6.7480    32.5490     7.9150 hc         1 PXV       0.045700
     22 H101        -5.7610    31.3020     7.1710 hc         1 PXV       0.045700
     23 H151       -15.6690    26.0110    13.9990 ha         1 PXV       0.126000
     24 H201       -11.7340    25.6330    11.0400 ha         1 PXV       0.123000
     25 H042       -12.9810    29.1440     8.1650 h1         1 PXV       0.055200
     26 H041       -11.9840    27.8870     7.4330 h1         1 PXV       0.055200
     27 H051       -10.6950    29.9530     7.9680 hc         1 PXV       0.054200
     28 H052       -11.1050    29.7820     9.6660 hc         1 PXV       0.054200
     29 H062        -9.4340    27.8180     8.0240 hc         1 PXV       0.033200
     30 H061        -9.9510    27.5280     9.6760 hc         1 PXV       0.033200
     31 H072        -7.6780    28.3130     9.7360 hc         1 PXV       0.039700
     32 H071        -8.7080    29.5400    10.4470 hc         1 PXV       0.039700
     33 H082        -8.6050    30.8630     8.3290 hc         1 PXV       0.036700
     34 H081        -7.6390    29.6030     7.5840 hc         1 PXV       0.036700
     35 H092        -5.8520    29.9720     9.2980 hc         1 PXV       0.044200
     36 H091        -6.8220    31.2310    10.0400 hc         1 PXV       0.044200
     37 H112        -4.4520    33.2620     7.9690 h1         1 PXV       0.020200
     38 H111        -4.9740    32.9270     9.6310 h1         1 PXV       0.020200
     39 H141       -15.2890    27.7080    12.2330 ha         1 PXV       0.123000
     40 H183       -13.7380    22.3470    15.5480 h1         1 PXV       0.044033
     41 H181       -13.2750    22.2640    13.8290 h1         1 PXV       0.044033
     42 H182       -12.3150    23.2480    14.9680 h1         1 PXV       0.044033
     43 H191       -12.0960    23.9730    12.7720 ha         1 PXV       0.126000
     44 H031       -12.2500    26.5530     9.2940 hn         1 PXV       0.310500
     45 H1          -2.9350    31.9490     9.1620 ho         1 PXV       0.438000
@<TRIPOS>BOND
     1     1    11 1   
     2     1    12 1   
     3     1    21 1   
     4     1    22 1   
     5     2     4 ar  
     6     2     5 1   
     7     2    13 ar  
     8     3    13 ar  
     9     3    14 ar  
    10     3    23 1   
    11     4    16 ar  
    12     4    24 1   
    13     5    17 1   
    14     5    18 2   
    15     6     7 1   
    16     6    17 1   
    17     6    25 1   
    18     6    26 1   
    19     7     8 1   
    20     7    27 1   
    21     7    28 1   
    22     8     9 1   
    23     8    29 1   
    24     8    30 1   
    25     9    10 1   
    26     9    31 1   
    27     9    32 1   
    28    10    11 1   
    29    10    33 1   
    30    10    34 1   
    31    11    35 1   
    32    11    36 1   
    33    12    19 1   
    34    12    37 1   
    35    12    38 1   
    36    13    39 1   
    37    14    16 ar  
    38    14    20 1   
    39    15    20 1   
    40    15    40 1   
    41    15    41 1   
    42    15    42 1   
    43    16    43 1   
    44    17    44 1   
    45    19    45 1   
@<TRIPOS>SUBSTRUCTURE
     1 PXV         1 TEMP              0 ****  ****    0 ROOT
