@<TRIPOS>MOLECULE
PXX
   29    31     1     0     0
SMALL
No Charge or Current Charge


@<TRIPOS>ATOM
      1 CAA          4.8910     0.6040    -0.1160 c3         1 PXX      -0.182100
      2 CAM          3.4600     1.0690     0.1390 c          1 PXX       0.607100
      3 OAB          3.2190     2.1910     0.5670 o          1 PXX      -0.574100
      4 NAL          2.4950     0.1100    -0.1370 ns         1 PXX      -0.173000
      5 CAN          1.0700     0.1490    -0.0860 ca         1 PXX      -0.025000
      6 CAP          0.3330    -1.0600    -0.0210 ca         1 PXX      -0.089000
      7 CAH          1.0040    -2.3070     0.0190 ca         1 PXX      -0.071000
      8 CAD          0.2500    -3.4840     0.0860 ca         1 PXX      -0.160000
      9 CAF         -1.1450    -3.3970     0.1150 ca         1 PXX       0.344900
     10 NAK         -1.8010    -2.2190     0.0810 nb         1 PXX      -0.622000
     11 CAR         -1.0960    -1.0480     0.0140 ca         1 PXX       0.306000
     12 CAQ         -1.7880     0.2080    -0.0210 ca         1 PXX       0.288000
     13 NAJ         -3.1560     0.2660     0.0120 nb         1 PXX      -0.623000
     14 CAE         -3.7750     1.4660    -0.0290 ca         1 PXX       0.340900
     15 CAC         -3.0780     2.6770    -0.1060 ca         1 PXX      -0.157000
     16 CAG         -1.6780     2.6510    -0.1410 ca         1 PXX      -0.065000
     17 CAO         -1.0260     1.4040    -0.0960 ca         1 PXX      -0.068000
     18 CAI          0.3760     1.3700    -0.1320 ca         1 PXX      -0.089000
     19 HAA          5.0720    -0.3190     0.4470 hc         1 PXX       0.063367
     20 HAAA         4.9750     0.2620    -1.1540 hc         1 PXX       0.063367
     21 HAAB         5.6340     1.3740     0.1180 hc         1 PXX       0.063367
     22 HNAL         2.8720    -0.7760    -0.4460 hn         1 PXX       0.154000
     23 HAH          2.0880    -2.3830     0.0020 ha         1 PXX       0.114000
     24 HAD          0.7340    -4.4560     0.1180 ha         1 PXX       0.125000
     25 HAF         -1.7580    -4.2950     0.1680 h4         1 PXX       0.023100
     26 HAE         -4.8640     1.4520     0.0000 h4         1 PXX       0.022100
     27 HAC         -3.6200     3.6180    -0.1370 ha         1 PXX       0.125000
     28 HAG         -1.1140     3.5790    -0.2010 ha         1 PXX       0.123000
     29 HAI          0.9140     2.3090    -0.2140 ha         1 PXX       0.134000
@<TRIPOS>BOND
     1     1     2 1   
     2     1    19 1   
     3     1    20 1   
     4     1    21 1   
     5     2     3 2   
     6     2     4 1   
     7     4     5 1   
     8     4    22 1   
     9     5     6 ar  
    10     5    18 ar  
    11     6     7 ar  
    12     6    11 ar  
    13     7     8 ar  
    14     7    23 1   
    15     8     9 ar  
    16     8    24 1   
    17     9    10 ar  
    18     9    25 1   
    19    10    11 ar  
    20    11    12 ar  
    21    12    13 ar  
    22    12    17 ar  
    23    13    14 ar  
    24    14    15 ar  
    25    14    26 1   
    26    15    16 ar  
    27    15    27 1   
    28    16    17 ar  
    29    16    28 1   
    30    17    18 ar  
    31    18    29 1   
@<TRIPOS>SUBSTRUCTURE
     1 PXX         1 TEMP              0 ****  ****    0 ROOT
