@<TRIPOS>MOLECULE
PXX
   29    31     1     0     0
SMALL
abcg2


@<TRIPOS>ATOM
      1 CAA          4.8200     0.5340    -0.0140 c3         1 PXX      -0.182100
      2 CAM          3.3820     0.8640     0.2890 c          1 PXX       0.607100
      3 OAB          3.0560     1.6800     1.1290 o          1 PXX      -0.574100
      4 NAL          2.4800     0.1410    -0.4330 ns         1 PXX      -0.173000
      5 CAN          1.0860     0.2050    -0.2830 ca         1 PXX      -0.025000
      6 CAP          0.3650    -1.0280    -0.1040 ca         1 PXX      -0.089000
      7 CAH          1.0080    -2.2750    -0.0070 ca         1 PXX      -0.071000
      8 CAD          0.2570    -3.4120     0.1450 ca         1 PXX      -0.160000
      9 CAF         -1.1360    -3.2880     0.2010 ca         1 PXX       0.344900
     10 NAK         -1.7640    -2.1380     0.1360 nb         1 PXX      -0.622000
     11 CAR         -1.0430    -1.0160    -0.0060 ca         1 PXX       0.306000
     12 CAQ         -1.7460     0.2490    -0.0360 ca         1 PXX       0.288000
     13 NAJ         -3.0820     0.2510     0.0700 nb         1 PXX      -0.623000
     14 CAE         -3.7100     1.4030     0.0460 ca         1 PXX       0.340900
     15 CAC         -3.0630     2.6400    -0.0840 ca         1 PXX      -0.157000
     16 CAG         -1.6970     2.6510    -0.1940 ca         1 PXX      -0.065000
     17 CAO         -0.9960     1.4330    -0.1710 ca         1 PXX      -0.068000
     18 CAI          0.4210     1.3850    -0.3060 ca         1 PXX      -0.089000
     19 HAA          5.1810    -0.1900     0.7180 hc         1 PXX       0.063367
     20 HAAA         4.9620     0.1060    -1.0050 hc         1 PXX       0.063367
     21 HAAB         5.4320     1.4290     0.0750 hc         1 PXX       0.063367
     22 HNAL         2.8440    -0.5290    -1.0920 hn         1 PXX       0.154000
     23 HAH          2.0860    -2.3440    -0.0380 ha         1 PXX       0.114000
     24 HAD          0.7220    -4.3840     0.2270 ha         1 PXX       0.125000
     25 HAF         -1.7530    -4.1730     0.3130 h4         1 PXX       0.023100
     26 HAE         -4.7910     1.3690     0.1330 h4         1 PXX       0.022100
     27 HAC         -3.6390     3.5550    -0.0980 ha         1 PXX       0.125000
     28 HAG         -1.1520     3.5810    -0.3030 ha         1 PXX       0.123000
     29 HAI          0.9550     2.3140    -0.4570 ha         1 PXX       0.134000
@<TRIPOS>BOND
     1     1     2 1   
     2     1    19 1   
     3     1    20 1   
     4     1    21 1   
     5     2     3 2   
     6     2     4 1   
     7     4     5 1   
     8     4    22 1   
     9     5     6 ar  
    10     5    18 ar  
    11     6     7 ar  
    12     6    11 ar  
    13     7     8 ar  
    14     7    23 1   
    15     8     9 ar  
    16     8    24 1   
    17     9    10 ar  
    18     9    25 1   
    19    10    11 ar  
    20    11    12 ar  
    21    12    13 ar  
    22    12    17 ar  
    23    13    14 ar  
    24    14    15 ar  
    25    14    26 1   
    26    15    16 ar  
    27    15    27 1   
    28    16    17 ar  
    29    16    28 1   
    30    17    18 ar  
    31    18    29 1   
@<TRIPOS>SUBSTRUCTURE
     1 PXX         1 TEMP              0 ****  ****    0 ROOT
