@<TRIPOS>MOLECULE
PXY
   18    18     1     0     0
SMALL
bcc


@<TRIPOS>ATOM
      1 C1           0.0170    -0.0220     1.3880 ca         1 PXY      -0.079300
      2 C2           1.2030    -0.0340     0.6560 ca         1 PXY      -0.126000
      3 C3           1.1910    -0.0110    -0.7310 ca         1 PXY      -0.126000
      4 C4          -0.0070     0.0200    -1.4410 ca         1 PXY      -0.079300
      5 C5          -1.1930     0.0310    -0.7110 ca         1 PXY      -0.126000
      6 C6          -1.1810     0.0080     0.6780 ca         1 PXY      -0.126000
      7 C7           0.0320    -0.0110     2.8890 c3         1 PXY      -0.045800
      8 C8          -0.0180     0.0120    -2.9430 c3         1 PXY      -0.045800
      9 H2           2.1520    -0.0620     1.1790 ha         1 PXY       0.127000
     10 H3           2.1310    -0.0190    -1.2710 ha         1 PXY       0.127000
     11 H5          -2.1420     0.0570    -1.2330 ha         1 PXY       0.127000
     12 H6          -2.1210     0.0150     1.2180 ha         1 PXY       0.127000
     13 H1'1         0.0860     1.0100     3.2740 hc         1 PXY       0.040867
     14 H1'2        -0.8690    -0.4640     3.3020 hc         1 PXY       0.040867
     15 H1'3         0.8920    -0.5500     3.2850 hc         1 PXY       0.040867
     16 H4'1         0.0720    -1.0050    -3.3310 hc         1 PXY       0.040867
     17 H4'2        -0.9420     0.4300    -3.3390 hc         1 PXY       0.040867
     18 H4'3         0.8150     0.5850    -3.3510 hc         1 PXY       0.040867
@<TRIPOS>BOND
     1     1     2 ar  
     2     1     6 ar  
     3     1     7 1   
     4     2     3 ar  
     5     2     9 1   
     6     3     4 ar  
     7     3    10 1   
     8     4     5 ar  
     9     4     8 1   
    10     5     6 ar  
    11     5    11 1   
    12     6    12 1   
    13     7    13 1   
    14     7    14 1   
    15     7    15 1   
    16     8    16 1   
    17     8    17 1   
    18     8    18 1   
@<TRIPOS>SUBSTRUCTURE
     1 PXY         1 TEMP              0 ****  ****    0 ROOT
