@<TRIPOS>MOLECULE
PXY
   18    18     1     0     0
SMALL
No Charge or Current Charge


@<TRIPOS>ATOM
      1 C1           0.0180    -0.0080     1.3870 ca         1 PXY      -0.079300
      2 C2           1.2270    -0.0160     0.6660 ca         1 PXY      -0.108000
      3 C3           1.2150    -0.0100    -0.7400 ca         1 PXY      -0.108000
      4 C4          -0.0050     0.0070    -1.4400 ca         1 PXY      -0.079300
      5 C5          -1.2140     0.0150    -0.7190 ca         1 PXY      -0.108000
      6 C6          -1.2020     0.0090     0.6860 ca         1 PXY      -0.108000
      7 C7           0.0310    -0.0100     2.9080 c3         1 PXY      -0.045800
      8 C8          -0.0180     0.0090    -2.9610 c3         1 PXY      -0.045800
      9 H2           2.1780    -0.0260     1.1940 ha         1 PXY       0.109000
     10 H3           2.1570    -0.0190    -1.2850 ha         1 PXY       0.109000
     11 H5          -2.1650     0.0250    -1.2480 ha         1 PXY       0.109000
     12 H6          -2.1440     0.0180     1.2310 ha         1 PXY       0.109000
     13 H1'1         0.0450     1.0140     3.2990 hc         1 PXY       0.040867
     14 H1'2        -0.8540    -0.5130     3.3150 hc         1 PXY       0.040867
     15 H1'3         0.9130    -0.5310     3.3000 hc         1 PXY       0.040867
     16 H4'1        -0.0320    -1.0150    -3.3530 hc         1 PXY       0.040867
     17 H4'2        -0.9000     0.5300    -3.3530 hc         1 PXY       0.040867
     18 H4'3         0.8670     0.5120    -3.3680 hc         1 PXY       0.040867
@<TRIPOS>BOND
     1     1     2 ar  
     2     1     6 ar  
     3     1     7 1   
     4     2     3 ar  
     5     2     9 1   
     6     3     4 ar  
     7     3    10 1   
     8     4     5 ar  
     9     4     8 1   
    10     5     6 ar  
    11     5    11 1   
    12     6    12 1   
    13     7    13 1   
    14     7    14 1   
    15     7    15 1   
    16     8    16 1   
    17     8    17 1   
    18     8    18 1   
@<TRIPOS>SUBSTRUCTURE
     1 PXY         1 TEMP              0 ****  ****    0 ROOT
