@<TRIPOS>MOLECULE
PY0
   15    14     1     0     0
SMALL
No Charge or Current Charge


@<TRIPOS>ATOM
      1 C3           1.7180     1.2640     0.2480 c3         1 PY0      -0.088100
      2 C2           0.9800    -0.0800     0.4660 c3         1 PY0       0.108300
      3 O3           1.6810    -1.1200    -0.2600 oh         1 PY0      -0.743000
      4 C1          -0.5780    -0.0380     0.0780 c3         1 PY0       0.717700
      5 O1          -1.3160     0.7910     0.8620 oh         1 PY0      -0.752000
      6 O2          -0.8680     0.2960    -1.1420 o          1 PY0      -0.813500
      7 N           -1.2340    -1.2290     0.3010 n8         1 PY0      -1.062200
      8 H31C         1.7050     1.5540    -0.8100 hc         1 PY0       0.011367
      9 H32C         1.2430     2.0630     0.8280 hc         1 PY0       0.011367
     10 H33C         2.7630     1.1890     0.5720 hc         1 PY0       0.011367
     11 H2           1.0430    -0.3070     1.5400 h1         1 PY0       0.001700
     12 H3           0.9550    -1.7140    -0.5710 ho         1 PY0       0.499000
     13 H1          -1.6560     1.3890     0.1720 ho         1 PY0       0.384000
     14 HN1         -1.6060    -1.0960     1.2390 hn         1 PY0       0.356000
     15 HN2         -2.0510    -1.1240    -0.2940 hn         1 PY0       0.356000
@<TRIPOS>BOND
     1     1     2 1   
     2     1     8 1   
     3     1     9 1   
     4     1    10 1   
     5     2     3 1   
     6     2     4 1   
     7     2    11 1   
     8     3    12 1   
     9     4     5 1   
    10     4     6 1   
    11     4     7 1   
    12     5    13 1   
    13     7    14 1   
    14     7    15 1   
@<TRIPOS>SUBSTRUCTURE
     1 PY0         1 TEMP              0 ****  ****    0 ROOT
