@<TRIPOS>MOLECULE
PY0
   15    14     1     0     0
SMALL
bcc


@<TRIPOS>ATOM
      1 C3           1.5630     1.2500     0.2620 c3         1 PY0      -0.088100
      2 C2           0.9040    -0.1120     0.4270 c3         1 PY0       0.085100
      3 O3           1.6170    -1.0890    -0.2960 oh         1 PY0      -0.680800
      4 C1          -0.5590    -0.1890    -0.1630 c3         1 PY0       0.694500
      5 O1          -1.1950     1.1090    -0.0880 oh         1 PY0      -0.689800
      6 O2          -0.4970    -0.5680    -1.4210 o          1 PY0      -0.813500
      7 N           -1.2980    -1.1540     0.6680 n8         1 PY0      -0.951800
      8 H31C         1.5050     1.5910    -0.7740 hc         1 PY0       0.011367
      9 H32C         1.1040     2.0150     0.8910 hc         1 PY0       0.011367
     10 H33C         2.6180     1.1970     0.5380 hc         1 PY0       0.011367
     11 H2           0.9050    -0.3720     1.4960 h1         1 PY0       0.001700
     12 H3           0.9840    -1.1530    -1.0700 ho         1 PY0       0.460000
     13 H1          -1.2340     1.3840     0.8340 ho         1 PY0       0.345000
     14 HN1         -1.3990    -0.8230     1.6230 hn         1 PY0       0.300800
     15 HN2         -2.2400    -1.2470     0.3020 hn         1 PY0       0.300800
@<TRIPOS>BOND
     1     1     2 1   
     2     1     8 1   
     3     1     9 1   
     4     1    10 1   
     5     2     3 1   
     6     2     4 1   
     7     2    11 1   
     8     3    12 1   
     9     4     5 1   
    10     4     6 1   
    11     4     7 1   
    12     5    13 1   
    13     7    14 1   
    14     7    15 1   
@<TRIPOS>SUBSTRUCTURE
     1 PY0         1 TEMP              0 ****  ****    0 ROOT
