@<TRIPOS>MOLECULE
PY1
   33    36     1     0     0
SMALL
No Charge or Current Charge


@<TRIPOS>ATOM
      1 C1          -1.7000    -0.1380    -0.5350 cc         1 PY1      -0.131000
      2 C2          -0.9870     0.0600    -1.7490 cc         1 PY1       0.214000
      3 N3          -1.7870     0.4630    -2.7290 nd         1 PY1      -0.516800
      4 N4          -3.0440     0.5220    -2.1300 na         1 PY1       0.008800
      5 C5          -3.0070     0.1650    -0.7800 cd         1 PY1      -0.165000
      6 C8          -1.2780    -0.3680     0.8560 ca         1 PY1       0.077000
      7 C10          0.4560    -0.2300    -1.9760 ca         1 PY1       0.313000
      8 N12          1.1150    -1.0350    -1.0950 nb         1 PY1      -0.654000
      9 C13          2.4100    -1.3430    -1.3290 ca         1 PY1       0.339900
     10 C14          3.1080    -0.8920    -2.4600 ca         1 PY1      -0.161000
     11 C15          2.4390    -0.0940    -3.3980 ca         1 PY1      -0.080000
     12 C16          1.0940     0.2280    -3.1540 ca         1 PY1      -0.135000
     13 C21         -0.1830     0.2840     1.4870 ca         1 PY1      -0.056000
     14 C22          0.1610    -0.0880     2.8180 ca         1 PY1       0.266000
     15 N23         -0.5400    -1.0120     3.5140 nb         1 PY1      -0.664000
     16 C24         -1.6150    -1.5810     2.9310 ca         1 PY1       0.352900
     17 C25         -2.0190    -1.2810     1.6270 ca         1 PY1      -0.167000
     18 C28          0.5310     1.3330     0.8590 ca         1 PY1      -0.082000
     19 C29          1.6130     1.9510     1.5030 ca         1 PY1      -0.116000
     20 C30          1.9850     1.5470     2.7910 ca         1 PY1      -0.105000
     21 C31          1.2550     0.5410     3.4430 ca         1 PY1      -0.086000
     22 HN4         -3.8700     0.8140    -2.6530 hn         1 PY1       0.377000
     23 H5          -3.8740     0.2030    -0.1290 h4         1 PY1       0.161000
     24 H13          2.9000    -1.9750    -0.5900 h4         1 PY1       0.022100
     25 H14          4.1490    -1.1690    -2.6040 ha         1 PY1       0.124000
     26 H15          2.9460     0.2630    -4.2920 ha         1 PY1       0.119000
     27 H16          0.5520     0.8410    -3.8690 ha         1 PY1       0.136000
     28 H24         -2.1620    -2.3090     3.5280 h4         1 PY1       0.015100
     29 H25         -2.8780    -1.7940     1.2060 ha         1 PY1       0.121000
     30 H28          0.2480     1.6950    -0.1240 ha         1 PY1       0.119000
     31 H29          2.1590     2.7490     1.0040 ha         1 PY1       0.112000
     32 H30          2.8240     2.0250     3.2940 ha         1 PY1       0.113000
     33 H31          1.5300     0.2520     4.4540 ha         1 PY1       0.128000
@<TRIPOS>BOND
     1     1     2 1   
     2     1     5 2   
     3     1     6 1   
     4     2     3 2   
     5     2     7 1   
     6     3     4 1   
     7     4     5 1   
     8     4    22 1   
     9     5    23 1   
    10     6    13 ar  
    11     6    17 ar  
    12     7     8 ar  
    13     7    12 ar  
    14     8     9 ar  
    15     9    10 ar  
    16     9    24 1   
    17    10    11 ar  
    18    10    25 1   
    19    11    12 ar  
    20    11    26 1   
    21    12    27 1   
    22    13    14 ar  
    23    13    18 ar  
    24    14    15 ar  
    25    14    21 ar  
    26    15    16 ar  
    27    16    17 ar  
    28    16    28 1   
    29    17    29 1   
    30    18    19 ar  
    31    18    30 1   
    32    19    20 ar  
    33    19    31 1   
    34    20    21 ar  
    35    20    32 1   
    36    21    33 1   
@<TRIPOS>SUBSTRUCTURE
     1 PY1         1 TEMP              0 ****  ****    0 ROOT
