@<TRIPOS>MOLECULE
PY1
   33    36     1     0     0
SMALL
abcg2


@<TRIPOS>ATOM
      1 C1          -1.6860    -0.0140    -0.5000 cc         1 PY1      -0.131000
      2 C2          -0.9960     0.0220    -1.7380 cc         1 PY1       0.214000
      3 N3          -1.8010     0.4110    -2.7140 nd         1 PY1      -0.516800
      4 N4          -2.9720     0.6220    -2.1400 na         1 PY1       0.008800
      5 C5          -2.9670     0.3790    -0.8230 cd         1 PY1      -0.165000
      6 C8          -1.2170    -0.3700     0.8420 ca         1 PY1       0.077000
      7 C10          0.4000    -0.3290    -2.0130 ca         1 PY1       0.313000
      8 N12          0.9950    -1.1250    -1.1280 nb         1 PY1      -0.654000
      9 C13          2.2610    -1.4580    -1.3310 ca         1 PY1       0.339900
     10 C14          3.0010    -1.0280    -2.4230 ca         1 PY1      -0.161000
     11 C15          2.3770    -0.2030    -3.3480 ca         1 PY1      -0.080000
     12 C16          1.0560     0.1570    -3.1430 ca         1 PY1      -0.135000
     13 C21         -0.1700     0.3430     1.4920 ca         1 PY1      -0.056000
     14 C22          0.2100    -0.0750     2.7920 ca         1 PY1       0.266000
     15 N23         -0.3960    -1.1010     3.4400 nb         1 PY1      -0.664000
     16 C24         -1.3750    -1.7120     2.8300 ca         1 PY1       0.352900
     17 C25         -1.8210    -1.3870     1.5350 ca         1 PY1      -0.167000
     18 C28          0.4870     1.4510     0.9140 ca         1 PY1      -0.082000
     19 C29          1.4910     2.0960     1.5830 ca         1 PY1      -0.116000
     20 C30          1.8860     1.6630     2.8650 ca         1 PY1      -0.105000
     21 C31          1.2560     0.6030     3.4580 ca         1 PY1      -0.086000
     22 HN4         -3.7560     0.9230    -2.6970 hn         1 PY1       0.377000
     23 H5          -3.8410     0.5150    -0.2070 h4         1 PY1       0.161000
     24 H13          2.7140    -2.1050    -0.5880 h4         1 PY1       0.022100
     25 H14          4.0310    -1.3310    -2.5420 ha         1 PY1       0.124000
     26 H15          2.9140     0.1620    -4.2140 ha         1 PY1       0.119000
     27 H16          0.5420     0.8080    -3.8360 ha         1 PY1       0.136000
     28 H24         -1.8550    -2.5240     3.3660 h4         1 PY1       0.015100
     29 H25         -2.6250    -1.9600     1.0910 ha         1 PY1       0.121000
     30 H28          0.1860     1.8010    -0.0650 ha         1 PY1       0.119000
     31 H29          1.9840     2.9460     1.1300 ha         1 PY1       0.112000
     32 H30          2.6830     2.1790     3.3840 ha         1 PY1       0.113000
     33 H31          1.5360     0.2670     4.4480 ha         1 PY1       0.128000
@<TRIPOS>BOND
     1     1     2 1   
     2     1     5 2   
     3     1     6 1   
     4     2     3 2   
     5     2     7 1   
     6     3     4 1   
     7     4     5 1   
     8     4    22 1   
     9     5    23 1   
    10     6    13 ar  
    11     6    17 ar  
    12     7     8 ar  
    13     7    12 ar  
    14     8     9 ar  
    15     9    10 ar  
    16     9    24 1   
    17    10    11 ar  
    18    10    25 1   
    19    11    12 ar  
    20    11    26 1   
    21    12    27 1   
    22    13    14 ar  
    23    13    18 ar  
    24    14    15 ar  
    25    14    21 ar  
    26    15    16 ar  
    27    16    17 ar  
    28    16    28 1   
    29    17    29 1   
    30    18    19 ar  
    31    18    30 1   
    32    19    20 ar  
    33    19    31 1   
    34    20    21 ar  
    35    20    32 1   
    36    21    33 1   
@<TRIPOS>SUBSTRUCTURE
     1 PY1         1 TEMP              0 ****  ****    0 ROOT
