@<TRIPOS>MOLECULE
PY2
   15    15     1     0     0
SMALL
No Charge or Current Charge


@<TRIPOS>ATOM
      1 N1           1.2370    -0.1320    -1.9830 nb         1 PY2      -0.665000
      2 C2           1.1970     0.2850    -0.6940 ca         1 PY2       0.352900
      3 C3          -0.0020     0.4740     0.0200 ca         1 PY2      -0.134300
      4 C4          -1.2220     0.2160    -0.6310 ca         1 PY2      -0.055000
      5 C5          -1.1840    -0.2170    -1.9660 ca         1 PY2      -0.164000
      6 C6           0.0590    -0.3770    -2.6010 ca         1 PY2       0.341900
      7 C            0.0270     0.9480     1.4640 c3         1 PY2       0.139900
      8 S           -0.0240    -0.5300     2.5780 sh         1 PY2      -0.447800
      9 H2           2.1610     0.4740    -0.2210 h4         1 PY2       0.020100
     10 H4          -2.1720     0.3460    -0.1160 ha         1 PY2       0.124000
     11 H5          -2.1020    -0.4290    -2.5080 ha         1 PY2       0.126000
     12 H6           0.1140    -0.7120    -3.6370 h4         1 PY2       0.020100
     13 H1          -0.8380     1.5900     1.6730 h1         1 PY2       0.066200
     14 H2A          0.9430     1.5210     1.6620 h1         1 PY2       0.066200
     15 HS           0.0050     0.1650     3.7420 hs         1 PY2       0.207800
@<TRIPOS>BOND
     1     1     2 ar  
     2     1     6 ar  
     3     2     3 ar  
     4     2     9 1   
     5     3     4 ar  
     6     3     7 1   
     7     4     5 ar  
     8     4    10 1   
     9     5     6 ar  
    10     5    11 1   
    11     6    12 1   
    12     7     8 1   
    13     7    13 1   
    14     7    14 1   
    15     8    15 1   
@<TRIPOS>SUBSTRUCTURE
     1 PY2         1 TEMP              0 ****  ****    0 ROOT
