@<TRIPOS>MOLECULE
PY2
   15    15     1     0     0
SMALL
bcc


@<TRIPOS>ATOM
      1 N1           1.2090    -0.0900    -1.9820 nb         1 PY2      -0.665000
      2 C2           1.1830     0.3280    -0.7220 ca         1 PY2       0.418200
      3 C3           0.0170     0.4940     0.0180 ca         1 PY2      -0.199600
      4 C4          -1.1870     0.1930    -0.6100 ca         1 PY2      -0.073000
      5 C5          -1.1730    -0.2430    -1.9240 ca         1 PY2      -0.247300
      6 C6           0.0500    -0.3690    -2.5670 ca         1 PY2       0.407200
      7 C            0.0680     0.9510     1.4410 c3         1 PY2       0.092000
      8 S           -0.1340    -0.5180     2.5140 sh         1 PY2      -0.399900
      9 H2           2.1430     0.5500    -0.2670 h4         1 PY2       0.020100
     10 H4          -2.1240     0.3030    -0.0770 ha         1 PY2       0.142000
     11 H5          -2.0910    -0.4800    -2.4450 ha         1 PY2       0.144000
     12 H6           0.0950    -0.7080    -3.5960 h4         1 PY2       0.020100
     13 H1          -0.7330     1.6590     1.6510 h1         1 PY2       0.066200
     14 H2A          1.0200     1.4310     1.6590 h1         1 PY2       0.066200
     15 HS          -0.1460     0.1210     3.6900 hs         1 PY2       0.207800
@<TRIPOS>BOND
     1     1     2 ar  
     2     1     6 ar  
     3     2     3 ar  
     4     2     9 1   
     5     3     4 ar  
     6     3     7 1   
     7     4     5 ar  
     8     4    10 1   
     9     5     6 ar  
    10     5    11 1   
    11     6    12 1   
    12     7     8 1   
    13     7    13 1   
    14     7    14 1   
    15     8    15 1   
@<TRIPOS>SUBSTRUCTURE
     1 PY2         1 TEMP              0 ****  ****    0 ROOT
