@<TRIPOS>MOLECULE
PY3
   88    91     1     0     0
SMALL
No Charge or Current Charge


@<TRIPOS>ATOM
      1 C3          32.7390     5.1870    12.2730 ca         1 PY3       0.028000
      2 C4          33.5420     5.3700    13.4110 ca         1 PY3      -0.189500
      3 C5          34.8750     4.9320    13.3990 ca         1 PY3       0.342900
      4 C1          34.6720     4.1470    11.2330 ca         1 PY3       0.342900
      5 C2          33.3310     4.5550    11.1610 ca         1 PY3      -0.189500
      6 N6          35.4420     4.3330    12.3280 nb         1 PY3      -0.687000
      7 N7          31.4150     5.6980    12.2820 ns         1 PY3      -0.135000
      8 C8          30.3780     5.5840    11.3680 c          1 PY3       0.621700
      9 C9          29.1620     6.4150    11.7020 ca         1 PY3      -0.135600
     10 O10         30.3970     4.8260    10.4060 o          1 PY3      -0.548100
     11 C11         28.5370     7.2410    10.7310 ca         1 PY3      -0.055300
     12 C12         27.3890     7.9710    11.0890 ca         1 PY3      -0.113000
     13 C13         26.8620     7.8990    12.3870 ca         1 PY3      -0.080000
     14 C14         27.4920     7.1140    13.3760 ca         1 PY3      -0.193900
     15 C15         28.6370     6.3680    13.0140 ca         1 PY3      -0.066000
     16 C16         26.9130     7.0050    14.7490 ce         1 PY3       0.659800
     17 N17         25.6890     7.2100    15.0090 n2         1 PY3      -0.836100
     18 N18         27.7620     6.8380    15.7790 nv         1 PY3      -1.029200
     19 C19         29.1230     7.4410     9.3330 c3         1 PY3       0.136300
     20 N20         30.2870     8.3350     9.3840 ns         1 PY3      -0.513900
     21 C21         31.5630     8.0050     8.9750 c          1 PY3       0.592100
     22 C22         32.6120     9.1110     9.1900 c3         1 PY3      -0.001000
     23 N23         34.0160     8.6990     8.8870 n          1 PY3      -0.235000
     24 O24         31.8250     6.9190     8.4770 o          1 PY3      -0.565100
     25 C25         34.7250     7.9810     9.8610 c          1 PY3       0.424700
     26 C26         36.1220     7.5930     9.4160 cc         1 PY3       0.618200
     27 N27         36.7200     7.8890     8.2580 nd         1 PY3      -0.646300
     28 C28         35.9460     8.6310     7.3500 cd         1 PY3       0.011600
     29 C29         34.6450     8.9970     7.6780 cc         1 PY3      -0.016600
     30 C30         33.9370     9.7260     6.6250 ca         1 PY3      -0.025800
     31 N31         36.8660     6.8420    10.3110 nu         1 PY3      -0.879400
     32 C32         38.2210     6.3110    10.1410 c3         1 PY3       0.248500
     33 C33         38.9080     6.2470    11.5170 c3         1 PY3      -0.112600
     34 C34         38.1580     4.9310     9.4600 c3         1 PY3      -0.112600
     35 C35         34.3130    11.0410     6.3030 ca         1 PY3      -0.150000
     36 C36         33.6260    11.7490     5.3090 ca         1 PY3       0.287000
     37 C37         32.5560    11.1480     4.6290 ca         1 PY3      -0.157000
     38 C38         32.1630     9.8190     4.9290 ca         1 PY3      -0.114600
     39 C39         32.8750     9.1200     5.9300 ca         1 PY3      -0.095000
     40 N40         33.9960    13.0310     5.0030 nv         1 PY3      -1.078000
     41 C41         31.0090     9.1310     4.2220 c          1 PY3       0.609700
     42 N42         30.3070     9.8920     3.3090 ns         1 PY3      -0.502900
     43 C43         29.1390     9.4390     2.5500 c3         1 PY3       0.107700
     44 C44         27.8280    10.0090     3.1450 c3         1 PY3      -0.093400
     45 C45         27.5640     9.6020     4.6110 c3         1 PY3      -0.089100
     46 O46         30.7110     7.9660     4.4450 o          1 PY3      -0.587100
     47 C47         29.3100     9.8050     1.0640 c3         1 PY3      -0.103100
     48 O48         34.2360     7.7110    10.9600 o          1 PY3      -0.583000
     49 H4          33.1490     5.8600    14.2980 ha         1 PY3       0.139500
     50 H5          35.5130     5.0720    14.2700 h4         1 PY3       0.016100
     51 H1          35.1500     3.6650    10.3810 h4         1 PY3       0.016100
     52 H2          32.7930     4.3970    10.2330 ha         1 PY3       0.139500
     53 HN7         31.2190     6.3170    13.0560 hn         1 PY3       0.160000
     54 H12         26.9040     8.6150    10.3570 ha         1 PY3       0.118000
     55 H13         25.9750     8.4830    12.6250 ha         1 PY3       0.123000
     56 H15         29.1030     5.7140    13.7510 ha         1 PY3       0.134000
     57 H17         25.1860     7.2690    14.1150 hn         1 PY3       0.390400
     58 H181        27.3590     7.0820    16.6750 hn         1 PY3       0.468500
     59 H182        28.7090     7.1580    15.6200 hn         1 PY3       0.468500
     60 H191        29.3880     6.4780     8.8790 h1         1 PY3       0.079200
     61 H192        28.3680     7.8970     8.6780 h1         1 PY3       0.079200
     62 H20         30.1580     9.2580     9.7820 hn         1 PY3       0.309500
     63 H221        32.3220     9.9720     8.5770 h1         1 PY3       0.081700
     64 H222        32.5430     9.4330    10.2360 h1         1 PY3       0.081700
     65 H28         36.3960     8.8850     6.3910 h4         1 PY3       0.219000
     66 H31         36.3330     6.5500    11.1300 hn         1 PY3       0.515000
     67 H32         38.8160     6.9830     9.5050 h1         1 PY3       0.065700
     68 H331        39.9340     5.8750    11.4150 hc         1 PY3       0.045867
     69 H332        38.9540     7.2430    11.9730 hc         1 PY3       0.045867
     70 H333        38.3670     5.5780    12.1980 hc         1 PY3       0.045867
     71 H341        39.1680     4.5360     9.3030 hc         1 PY3       0.045867
     72 H342        37.6010     4.2140    10.0740 hc         1 PY3       0.045867
     73 H343        37.6680     5.0040     8.4820 hc         1 PY3       0.045867
     74 H35         35.1340    11.5130     6.8360 ha         1 PY3       0.122000
     75 H37         32.0420    11.7230     3.8660 ha         1 PY3       0.116000
     76 H39         32.6020     8.0950     6.1740 ha         1 PY3       0.157000
     77 H401        33.5920    13.5000     4.1940 hn         1 PY3       0.454000
     78 H402        34.8500    13.4240     5.3970 hn         1 PY3       0.454000
     79 H42         30.6140    10.8470     3.1860 hn         1 PY3       0.308500
     80 H43         29.0820     8.3420     2.6070 h1         1 PY3       0.085700
     81 H441        27.8420    11.1040     3.0760 hc         1 PY3       0.040200
     82 H442        26.9830     9.6670     2.5340 hc         1 PY3       0.040200
     83 H451        26.5910     9.9840     4.9430 hc         1 PY3       0.036700
     84 H452        27.5570     8.5100     4.7160 hc         1 PY3       0.036700
     85 H453        28.3330    10.0090     5.2790 hc         1 PY3       0.036700
     86 H471        28.4650     9.4310     0.4740 hc         1 PY3       0.040367
     87 H472        29.3670    10.8930     0.9320 hc         1 PY3       0.040367
     88 H473        30.2280     9.3600     0.6610 hc         1 PY3       0.040367
@<TRIPOS>BOND
     1     1     2 ar  
     2     1     5 ar  
     3     1     7 1   
     4     2     3 ar  
     5     2    49 1   
     6     3     6 ar  
     7     3    50 1   
     8     4     5 ar  
     9     4     6 ar  
    10     4    51 1   
    11     5    52 1   
    12     7     8 1   
    13     7    53 1   
    14     8     9 1   
    15     8    10 2   
    16     9    11 ar  
    17     9    15 ar  
    18    11    12 ar  
    19    11    19 1   
    20    12    13 ar  
    21    12    54 1   
    22    13    14 ar  
    23    13    55 1   
    24    14    15 ar  
    25    14    16 1   
    26    15    56 1   
    27    16    17 2   
    28    16    18 1   
    29    17    57 1   
    30    18    58 1   
    31    18    59 1   
    32    19    20 1   
    33    19    60 1   
    34    19    61 1   
    35    20    21 1   
    36    20    62 1   
    37    21    22 1   
    38    21    24 2   
    39    22    23 1   
    40    22    63 1   
    41    22    64 1   
    42    23    25 1   
    43    23    29 1   
    44    25    26 1   
    45    25    48 2   
    46    26    27 2   
    47    26    31 1   
    48    27    28 1   
    49    28    29 2   
    50    28    65 1   
    51    29    30 1   
    52    30    35 ar  
    53    30    39 ar  
    54    31    32 1   
    55    31    66 1   
    56    32    33 1   
    57    32    34 1   
    58    32    67 1   
    59    33    68 1   
    60    33    69 1   
    61    33    70 1   
    62    34    71 1   
    63    34    72 1   
    64    34    73 1   
    65    35    36 ar  
    66    35    74 1   
    67    36    37 ar  
    68    36    40 1   
    69    37    38 ar  
    70    37    75 1   
    71    38    39 ar  
    72    38    41 1   
    73    39    76 1   
    74    40    77 1   
    75    40    78 1   
    76    41    42 1   
    77    41    46 2   
    78    42    43 1   
    79    42    79 1   
    80    43    44 1   
    81    43    47 1   
    82    43    80 1   
    83    44    45 1   
    84    44    81 1   
    85    44    82 1   
    86    45    83 1   
    87    45    84 1   
    88    45    85 1   
    89    47    86 1   
    90    47    87 1   
    91    47    88 1   
@<TRIPOS>SUBSTRUCTURE
     1 PY3         1 TEMP              0 ****  ****    0 ROOT
