@<TRIPOS>MOLECULE
PY3
   88    91     1     0     0
SMALL
abcg2


@<TRIPOS>ATOM
      1 C3          32.7360     5.2300    11.5600 ca         1 PY3       0.028000
      2 C4          33.5910     5.2470    12.6610 ca         1 PY3      -0.189500
      3 C5          34.7470     4.4910    12.6230 ca         1 PY3       0.342900
      4 C1          34.2960     3.7500    10.5350 ca         1 PY3       0.342900
      5 C2          33.1110     4.4650    10.4590 ca         1 PY3      -0.189500
      6 N6          35.1060     3.7400    11.5860 nb         1 PY3      -0.687000
      7 N7          31.5660     5.9780    11.6290 ns         1 PY3      -0.135000
      8 C8          30.4050     5.7600    10.9600 c          1 PY3       0.621700
      9 C9          29.2830     6.6600    11.3870 ca         1 PY3      -0.135600
     10 O10         30.2370     4.8910    10.1290 o          1 PY3      -0.548100
     11 C11         28.6640     7.5300    10.4860 ca         1 PY3      -0.055300
     12 C12         27.5570     8.2490    10.9200 ca         1 PY3      -0.113000
     13 C13         27.0610     8.1040    12.2060 ca         1 PY3      -0.080000
     14 C14         27.6810     7.2450    13.1050 ca         1 PY3      -0.193900
     15 C15         28.8020     6.5320    12.6840 ca         1 PY3      -0.066000
     16 C16         27.1350     7.0780    14.4810 ce         1 PY3       0.659800
     17 N17         25.8910     7.1010    14.7710 n2         1 PY3      -0.836100
     18 N18         28.0690     6.8410    15.4440 nv         1 PY3      -1.029200
     19 C19         29.2150     7.7820     9.1050 c3         1 PY3       0.136300
     20 N20         30.3890     8.6240     9.1670 ns         1 PY3      -0.513900
     21 C21         31.6270     8.2370     8.8180 c          1 PY3       0.592100
     22 C22         32.6570     9.3560     8.9250 c3         1 PY3      -0.001000
     23 N23         34.0000     8.8510     8.7640 n          1 PY3      -0.235000
     24 O24         31.9190     7.1250     8.4210 o          1 PY3      -0.565100
     25 C25         34.5240     8.2120     9.8450 c          1 PY3       0.424700
     26 C26         35.9180     7.7460     9.6770 cc         1 PY3       0.618200
     27 N27         36.6080     7.9490     8.5950 nd         1 PY3      -0.646300
     28 C28         35.9980     8.5830     7.5580 cd         1 PY3       0.011600
     29 C29         34.7210     9.0210     7.5860 cc         1 PY3      -0.016600
     30 C30         34.0840     9.6520     6.4130 ca         1 PY3      -0.025800
     31 N31         36.4390     7.1290    10.7440 nu         1 PY3      -0.879400
     32 C32         37.8010     6.6340    10.8020 c3         1 PY3       0.248500
     33 C33         38.1930     6.4420    12.2590 c3         1 PY3      -0.112600
     34 C34         37.9810     5.3450    10.0050 c3         1 PY3      -0.112600
     35 C35         34.5790    10.8580     5.9340 ca         1 PY3      -0.150000
     36 C36         34.0060    11.4810     4.8190 ca         1 PY3       0.287000
     37 C37         32.8920    10.8790     4.2220 ca         1 PY3      -0.157000
     38 C38         32.4020     9.6710     4.7010 ca         1 PY3      -0.114600
     39 C39         33.0070     9.0380     5.7780 ca         1 PY3      -0.095000
     40 N40         34.4850    12.6850     4.3640 nv         1 PY3      -1.078000
     41 C41         31.2210     8.9990     4.0730 c          1 PY3       0.609700
     42 N42         30.2230     9.8240     3.7190 ns         1 PY3      -0.502900
     43 C43         28.9470     9.3930     3.1730 c3         1 PY3       0.107700
     44 C44         27.8500     9.4430     4.2370 c3         1 PY3      -0.093400
     45 C45         28.1470     8.6150     5.4790 c3         1 PY3      -0.089100
     46 O46         31.1920     7.7840     3.9280 o          1 PY3      -0.587100
     47 C47         28.5950    10.2420     1.9600 c3         1 PY3      -0.103100
     48 O48         33.9070     8.0690    10.8930 o          1 PY3      -0.583000
     49 H4          33.3550     5.8320    13.5410 ha         1 PY3       0.139500
     50 H5          35.4130     4.4910    13.4790 h4         1 PY3       0.016100
     51 H1          34.6020     3.1510     9.6850 h4         1 PY3       0.016100
     52 H2          32.5220     4.4310     9.5590 ha         1 PY3       0.139500
     53 HN7         31.5640     6.7240    12.3080 hn         1 PY3       0.160000
     54 H12         27.0780     8.9430    10.2410 ha         1 PY3       0.118000
     55 H13         26.1990     8.6840    12.5100 ha         1 PY3       0.123000
     56 H15         29.2800     5.8380    13.3640 ha         1 PY3       0.134000
     57 H17         25.3250     7.1790    13.9350 hn         1 PY3       0.390400
     58 H181        27.7340     6.8460    16.3950 hn         1 PY3       0.468500
     59 H182        28.9840     7.2470    15.3320 hn         1 PY3       0.468500
     60 H191        29.4820     6.8560     8.6010 h1         1 PY3       0.079200
     61 H192        28.4530     8.2750     8.4990 h1         1 PY3       0.079200
     62 H20         30.2550     9.5700     9.4900 hn         1 PY3       0.309500
     63 H221        32.4570    10.1080     8.1630 h1         1 PY3       0.081700
     64 H222        32.5710     9.8540     9.8910 h1         1 PY3       0.081700
     65 H28         36.5830     8.7050     6.6550 h4         1 PY3       0.219000
     66 H31         35.8150     6.9470    11.5150 hn         1 PY3       0.515000
     67 H32         38.4430     7.4040    10.3640 h1         1 PY3       0.065700
     68 H331        39.2320     6.1220    12.3300 hc         1 PY3       0.045867
     69 H332        38.0830     7.3630    12.8310 hc         1 PY3       0.045867
     70 H333        37.5800     5.6700    12.7300 hc         1 PY3       0.045867
     71 H341        39.0310     5.0450    10.0090 hc         1 PY3       0.045867
     72 H342        37.3920     4.5380    10.4420 hc         1 PY3       0.045867
     73 H343        37.6740     5.4760     8.9680 hc         1 PY3       0.045867
     74 H35         35.4160    11.3290     6.4380 ha         1 PY3       0.122000
     75 H37         32.4340    11.3570     3.3640 ha         1 PY3       0.116000
     76 H39         32.6390     8.0820     6.1240 ha         1 PY3       0.157000
     77 H401        34.2600    12.9210     3.4110 hn         1 PY3       0.454000
     78 H402        35.4450    12.8930     4.5870 hn         1 PY3       0.454000
     79 H42         30.2960    10.7950     3.9830 hn         1 PY3       0.308500
     80 H43         29.0760     8.3570     2.8540 h1         1 PY3       0.085700
     81 H441        27.6730    10.4850     4.5210 hc         1 PY3       0.040200
     82 H442        26.9220     9.0930     3.7770 hc         1 PY3       0.040200
     83 H451        27.3050     8.6450     6.1720 hc         1 PY3       0.036700
     84 H452        28.3360     7.5710     5.2290 hc         1 PY3       0.036700
     85 H453        29.0210     8.9910     6.0140 hc         1 PY3       0.036700
     86 H471        27.6530     9.9130     1.5220 hc         1 PY3       0.040367
     87 H472        28.4830    11.2940     2.2340 hc         1 PY3       0.040367
     88 H473        29.3680    10.1720     1.1940 hc         1 PY3       0.040367
@<TRIPOS>BOND
     1     1     2 ar  
     2     1     5 ar  
     3     1     7 1   
     4     2     3 ar  
     5     2    49 1   
     6     3     6 ar  
     7     3    50 1   
     8     4     5 ar  
     9     4     6 ar  
    10     4    51 1   
    11     5    52 1   
    12     7     8 1   
    13     7    53 1   
    14     8     9 1   
    15     8    10 2   
    16     9    11 ar  
    17     9    15 ar  
    18    11    12 ar  
    19    11    19 1   
    20    12    13 ar  
    21    12    54 1   
    22    13    14 ar  
    23    13    55 1   
    24    14    15 ar  
    25    14    16 1   
    26    15    56 1   
    27    16    17 2   
    28    16    18 1   
    29    17    57 1   
    30    18    58 1   
    31    18    59 1   
    32    19    20 1   
    33    19    60 1   
    34    19    61 1   
    35    20    21 1   
    36    20    62 1   
    37    21    22 1   
    38    21    24 2   
    39    22    23 1   
    40    22    63 1   
    41    22    64 1   
    42    23    25 1   
    43    23    29 1   
    44    25    26 1   
    45    25    48 2   
    46    26    27 2   
    47    26    31 1   
    48    27    28 1   
    49    28    29 2   
    50    28    65 1   
    51    29    30 1   
    52    30    35 ar  
    53    30    39 ar  
    54    31    32 1   
    55    31    66 1   
    56    32    33 1   
    57    32    34 1   
    58    32    67 1   
    59    33    68 1   
    60    33    69 1   
    61    33    70 1   
    62    34    71 1   
    63    34    72 1   
    64    34    73 1   
    65    35    36 ar  
    66    35    74 1   
    67    36    37 ar  
    68    36    40 1   
    69    37    38 ar  
    70    37    75 1   
    71    38    39 ar  
    72    38    41 1   
    73    39    76 1   
    74    40    77 1   
    75    40    78 1   
    76    41    42 1   
    77    41    46 2   
    78    42    43 1   
    79    42    79 1   
    80    43    44 1   
    81    43    47 1   
    82    43    80 1   
    83    44    45 1   
    84    44    81 1   
    85    44    82 1   
    86    45    83 1   
    87    45    84 1   
    88    45    85 1   
    89    47    86 1   
    90    47    87 1   
    91    47    88 1   
@<TRIPOS>SUBSTRUCTURE
     1 PY3         1 TEMP              0 ****  ****    0 ROOT
