@<TRIPOS>MOLECULE
PY7
   15    15     1     0     0
SMALL
No Charge or Current Charge


@<TRIPOS>ATOM
      1 N1          -2.3030     0.0150    -0.2060 nb         1 PY7      -0.662000
      2 C2          -1.6060     1.1710    -0.0970 ca         1 PY7       0.331900
      3 C3          -0.2240     1.2120     0.1530 ca         1 PY7      -0.144500
      4 C4           0.4870     0.0060     0.3000 ca         1 PY7      -0.049300
      5 C5          -0.2380    -1.1950     0.1850 ca         1 PY7      -0.144500
      6 C6          -1.6200    -1.1450    -0.0660 ca         1 PY7       0.331900
      7 C7           1.9860     0.0010     0.5700 c3         1 PY7       0.203900
      8 O8           2.7140    -0.0200    -0.6630 oh         1 PY7      -0.650000
      9 H2          -2.1750     2.0930    -0.2150 h4         1 PY7       0.019100
     10 H3           0.2830     2.1700     0.2280 ha         1 PY7       0.123000
     11 H5           0.2580    -2.1560     0.2860 ha         1 PY7       0.123000
     12 H6          -2.1990    -2.0630    -0.1580 h4         1 PY7       0.019100
     13 H71          2.2410    -0.8780     1.1780 h1         1 PY7       0.027700
     14 H72          2.2510     0.8930     1.1540 h1         1 PY7       0.027700
     15 HO8          3.6690    -0.0220    -0.4270 ho         1 PY7       0.443000
@<TRIPOS>BOND
     1     1     2 ar  
     2     1     6 ar  
     3     2     3 ar  
     4     2     9 1   
     5     3     4 ar  
     6     3    10 1   
     7     4     5 ar  
     8     4     7 1   
     9     5     6 ar  
    10     5    11 1   
    11     6    12 1   
    12     7     8 1   
    13     7    13 1   
    14     7    14 1   
    15     8    15 1   
@<TRIPOS>SUBSTRUCTURE
     1 PY7         1 TEMP              0 ****  ****    0 ROOT
