@<TRIPOS>MOLECULE
PY7
   15    15     1     0     0
SMALL
abcg2


@<TRIPOS>ATOM
      1 N1          -2.2500     0.0120    -0.2360 nb         1 PY7      -0.662000
      2 C2          -1.5740     1.1470    -0.1030 ca         1 PY7       0.331900
      3 C3          -0.2160     1.1990     0.1790 ca         1 PY7      -0.144500
      4 C4           0.4870     0.0120     0.3360 ca         1 PY7      -0.049300
      5 C5          -0.2210    -1.1760     0.1950 ca         1 PY7      -0.144500
      6 C6          -1.5770    -1.1230    -0.0870 ca         1 PY7       0.331900
      7 C7           1.9680     0.0110     0.5890 c3         1 PY7       0.203900
      8 O8           2.6100    -0.0510    -0.6670 oh         1 PY7      -0.650000
      9 H2          -2.1380     2.0650    -0.2280 h4         1 PY7       0.019100
     10 H3           0.2780     2.1570     0.2810 ha         1 PY7       0.123000
     11 H5           0.2700    -2.1340     0.3090 ha         1 PY7       0.123000
     12 H6          -2.1440    -2.0410    -0.1980 h4         1 PY7       0.019100
     13 H71          2.2290    -0.8470     1.2200 h1         1 PY7       0.027700
     14 H72          2.2440     0.9160     1.1420 h1         1 PY7       0.027700
     15 HO8          3.5590    -0.0650    -0.5100 ho         1 PY7       0.443000
@<TRIPOS>BOND
     1     1     2 ar  
     2     1     6 ar  
     3     2     3 ar  
     4     2     9 1   
     5     3     4 ar  
     6     3    10 1   
     7     4     5 ar  
     8     4     7 1   
     9     5     6 ar  
    10     5    11 1   
    11     6    12 1   
    12     7     8 1   
    13     7    13 1   
    14     7    14 1   
    15     8    15 1   
@<TRIPOS>SUBSTRUCTURE
     1 PY7         1 TEMP              0 ****  ****    0 ROOT
