@<TRIPOS>MOLECULE
PY8
   36    38     1     0     0
SMALL
No Charge or Current Charge


@<TRIPOS>ATOM
      1 Br1          5.3190     3.7100    -5.2820 br         1 PY8      -0.080100
      2 C1           4.0020     2.6290    -4.3990 ca         1 PY8      -0.264900
      3 C2           2.6360     2.9780    -4.4380 ca         1 PY8       0.208900
      4 N3           1.6930     2.2340    -3.8170 nb         1 PY8      -0.272000
      5 C4           2.1390     1.1390    -3.1830 ca         1 PY8       0.432900
      6 N5           3.4040     0.7340    -3.0970 nb         1 PY8      -0.334000
      7 C6           4.3390     1.4660    -3.6920 ca         1 PY8       0.453900
      8 N7           5.6420     0.9930    -3.5750 nu         1 PY8      -0.921100
      9 C8           6.0410    -0.3880    -3.2010 c3         1 PY8       0.240800
     10 C9           5.8500    -0.6910    -1.6880 c3         1 PY8      -0.120400
     11 C10          6.0830    -2.1690    -1.3090 c3         1 PY8       0.246800
     12 N13          5.1630    -3.0650    -2.0450 n7         1 PY8      -0.961300
     13 S14          3.9720    -3.8920    -1.2090 sy         1 PY8       1.189600
     14 O14          4.5900    -4.4110     0.0130 o          1 PY8      -0.541000
     15 O15          3.4000    -4.7850    -2.2180 o          1 PY8      -0.541000
     16 C15          2.7510    -2.6200    -0.8310 ca         1 PY8      -0.248500
     17 C20          2.3730    -1.6910    -1.8200 ca         1 PY8      -0.051000
     18 C16          2.1510    -2.5530     0.4440 ca         1 PY8      -0.036000
     19 C17          1.1890    -1.5620     0.7150 ca         1 PY8      -0.096000
     20 C18          0.8510    -0.6120    -0.2680 ca         1 PY8      -0.120000
     21 C19          1.4600    -0.6510    -1.5330 ca         1 PY8       0.297000
     22 N21          1.2300     0.3910    -2.4480 nu         1 PY8      -0.924900
     23 H2           2.2920     3.8680    -4.9640 h4         1 PY8       0.035100
     24 H21          0.3360     0.8670    -2.3330 hn         1 PY8       0.512000
     25 H7           6.3370     1.5630    -4.0600 hn         1 PY8       0.513000
     26 H8C1         7.0990    -0.5460    -3.4510 h1         1 PY8       0.049700
     27 H8C2         5.4590    -1.1040    -3.7980 h1         1 PY8       0.049700
     28 H9C1         6.5480    -0.0680    -1.1170 hc         1 PY8       0.065700
     29 H9C2         4.8490    -0.4130    -1.3510 hc         1 PY8       0.065700
     30 H101         7.1240    -2.4170    -1.5610 h1         1 PY8       0.060700
     31 H102         5.9880    -2.2800    -0.2190 h1         1 PY8       0.060700
     32 H13          5.6970    -3.8770    -2.3530 hn         1 PY8       0.507000
     33 H20          2.8250    -1.7520    -2.8060 ha         1 PY8       0.152000
     34 H16          2.4180    -3.2690     1.2200 ha         1 PY8       0.135000
     35 H17          0.7240    -1.5150     1.6970 ha         1 PY8       0.120000
     36 H18          0.1440     0.1780    -0.0280 ha         1 PY8       0.116000
@<TRIPOS>BOND
     1     1     2 1   
     2     2     3 ar  
     3     2     7 ar  
     4     3     4 ar  
     5     3    23 1   
     6     4     5 ar  
     7     5     6 ar  
     8     5    22 1   
     9     6     7 ar  
    10     7     8 1   
    11     8     9 1   
    12     8    25 1   
    13     9    10 1   
    14     9    26 1   
    15     9    27 1   
    16    10    11 1   
    17    10    28 1   
    18    10    29 1   
    19    11    12 1   
    20    11    30 1   
    21    11    31 1   
    22    12    13 1   
    23    12    32 1   
    24    13    14 2   
    25    13    15 2   
    26    13    16 1   
    27    16    17 ar  
    28    16    18 ar  
    29    17    21 ar  
    30    17    33 1   
    31    18    19 ar  
    32    18    34 1   
    33    19    20 ar  
    34    19    35 1   
    35    20    21 ar  
    36    20    36 1   
    37    21    22 1   
    38    22    24 1   
@<TRIPOS>SUBSTRUCTURE
     1 PY8         1 TEMP              0 ****  ****    0 ROOT
