@<TRIPOS>MOLECULE
PY8
   36    38     1     0     0
SMALL
bcc


@<TRIPOS>ATOM
      1 BR1          5.3040     3.7120    -5.2250 br         1 PY8      -0.080100
      2 C1           4.0610     2.6350    -4.3150 ca         1 PY8      -0.395500
      3 C2           2.7500     3.0330    -4.1780 ca         1 PY8       0.537200
      4 N3           1.8290     2.3210    -3.5390 nb         1 PY8      -0.798000
      5 C4           2.2590     1.1650    -3.0330 ca         1 PY8       0.958900
      6 N5           3.4770     0.6710    -3.1430 nb         1 PY8      -0.860000
      7 C6           4.4150     1.3800    -3.7670 ca         1 PY8       0.782200
      8 N7           5.6350     0.8410    -3.8380 nu         1 PY8      -0.865900
      9 C8           5.9220    -0.5110    -3.3950 c3         1 PY8       0.240800
     10 C9           6.0520    -0.6610    -1.8820 c3         1 PY8      -0.120400
     11 C10          6.2800    -2.1080    -1.4600 c3         1 PY8       0.246800
     12 N13          5.1930    -3.0170    -1.8060 n7         1 PY8      -0.906100
     13 S14          4.1180    -3.6490    -0.7690 sy         1 PY8       1.331200
     14 O14          4.7130    -3.7190     0.5580 o          1 PY8      -0.611800
     15 O15          3.6030    -4.8640    -1.3840 o          1 PY8      -0.611800
     16 C15          2.7510    -2.5150    -0.6430 ca         1 PY8      -0.248500
     17 C20          2.6010    -1.5140    -1.5840 ca         1 PY8      -0.069000
     18 C16          1.8410    -2.7130     0.3860 ca         1 PY8      -0.054000
     19 C17          0.7450    -1.8660     0.4490 ca         1 PY8      -0.114000
     20 C18          0.5890    -0.8330    -0.4610 ca         1 PY8      -0.138000
     21 C19          1.5260    -0.6270    -1.4770 ca         1 PY8       0.158600
     22 N21          1.3270     0.4520    -2.3320 nu         1 PY8      -0.731300
     23 H2           2.4210     3.9770    -4.6010 h4         1 PY8       0.035100
     24 H21          0.4420     0.9270    -2.2360 hn         1 PY8       0.456800
     25 H7           6.3670     1.3390    -4.3160 hn         1 PY8       0.457800
     26 H8C1         6.8570    -0.8040    -3.8740 h1         1 PY8       0.049700
     27 H8C2         5.1480    -1.1780    -3.7810 h1         1 PY8       0.049700
     28 H9C1         6.9050    -0.0740    -1.5330 hc         1 PY8       0.065700
     29 H9C2         5.1660    -0.2670    -1.3830 hc         1 PY8       0.065700
     30 H101         7.1860    -2.5000    -1.9260 h1         1 PY8       0.060700
     31 H102         6.4440    -2.1540    -0.3850 h1         1 PY8       0.060700
     32 H13          5.1520    -3.3960    -2.7420 hn         1 PY8       0.451800
     33 H20          3.3210    -1.4040    -2.3760 ha         1 PY8       0.170000
     34 H16          1.9720    -3.4960     1.1200 ha         1 PY8       0.153000
     35 H17          0.0090    -1.9960     1.2320 ha         1 PY8       0.138000
     36 H18         -0.2590    -0.1660    -0.3720 ha         1 PY8       0.134000
@<TRIPOS>BOND
     1     1     2 1   
     2     2     3 ar  
     3     2     7 ar  
     4     3     4 ar  
     5     3    23 1   
     6     4     5 ar  
     7     5     6 ar  
     8     5    22 1   
     9     6     7 ar  
    10     7     8 1   
    11     8     9 1   
    12     8    25 1   
    13     9    10 1   
    14     9    26 1   
    15     9    27 1   
    16    10    11 1   
    17    10    28 1   
    18    10    29 1   
    19    11    12 1   
    20    11    30 1   
    21    11    31 1   
    22    12    13 1   
    23    12    32 1   
    24    13    14 2   
    25    13    15 2   
    26    13    16 1   
    27    16    17 ar  
    28    16    18 ar  
    29    17    21 ar  
    30    17    33 1   
    31    18    19 ar  
    32    18    34 1   
    33    19    20 ar  
    34    19    35 1   
    35    20    21 ar  
    36    20    36 1   
    37    21    22 1   
    38    22    24 1   
@<TRIPOS>SUBSTRUCTURE
     1 PY8         1 TEMP              0 ****  ****    0 ROOT
