@<TRIPOS>MOLECULE
PY9
   41    43     1     0     0
SMALL
bcc


@<TRIPOS>ATOM
      1 N1           0.3490    -1.0940    -0.0490 n          1 PY9      -0.460800
      2 C4          -4.5090     0.4500     0.5460 ca         1 PY9       0.208100
      3 C5          -3.9890     1.0310    -0.6010 ca         1 PY9      -0.301000
      4 C6          -2.6410     0.8800    -0.9170 ca         1 PY9       0.258100
      5 C7          -0.3890    -0.0650    -0.4950 c          1 PY9       0.703700
      6 C8           1.7690    -1.1440    -0.4200 c5         1 PY9       0.151000
      7 C10          0.9180    -3.3610    -0.1050 c5         1 PY9      -0.100400
      8 C13          2.3540     0.2820     1.5540 ca         1 PY9      -0.111000
      9 C15          4.0930     1.9300     1.4870 ca         1 PY9      -0.120000
     10 C17          3.5750     0.6290    -0.4960 ca         1 PY9      -0.049300
     11 C14          3.1010     1.2610     2.1910 ca         1 PY9      -0.135000
     12 C2          -2.3570    -0.4570     1.0620 ca         1 PY9      -0.018000
     13 C16          4.3220     1.6080     0.1570 ca         1 PY9      -0.130000
     14 C3          -3.6800    -0.2860     1.4000 ca         1 PY9      -0.226000
     15 C1          -1.8050     0.0800    -0.1060 ca         1 PY9      -0.305600
     16 C12          2.5770    -0.0420     0.2190 ca         1 PY9      -0.080300
     17 C9           2.1970    -2.5480     0.0200 c5         1 PY9      -0.089400
     18 C11         -0.1350    -2.3940     0.4190 c5         1 PY9       0.103000
     19 C18          3.8500     0.3240    -1.9420 c3         1 PY9      -0.051800
     20 O3           0.1260     0.7830    -1.2470 o          1 PY9      -0.651100
     21 O1          -2.1840     1.5090    -1.9980 oh         1 PY9      -0.514100
     22 H5          -4.6150     1.6350    -1.2490 ha         1 PY9       0.150000
     23 H8           1.8440    -1.0750    -1.5070 h1         1 PY9       0.069700
     24 H10          0.7160    -3.6070    -1.1500 hc         1 PY9       0.057700
     25 H10A         0.9390    -4.2880     0.4660 hc         1 PY9       0.057700
     26 H13          1.5790    -0.2360     2.1080 ha         1 PY9       0.129000
     27 H15          4.6850     2.6970     1.9700 ha         1 PY9       0.130000
     28 H14          2.9090     1.5000     3.2290 ha         1 PY9       0.129000
     29 H2          -1.7320    -1.0060     1.7520 ha         1 PY9       0.131000
     30 H16          5.0950     2.1320    -0.3930 ha         1 PY9       0.128000
     31 H3          -4.0750    -0.7070     2.3140 ha         1 PY9       0.150000
     32 H9           3.0190    -2.9220    -0.5900 hc         1 PY9       0.059700
     33 H9A          2.5360    -2.5350     1.0590 hc         1 PY9       0.059700
     34 H11         -0.1700    -2.4330     1.5120 h1         1 PY9       0.053700
     35 H11A        -1.1330    -2.6030     0.0380 h1         1 PY9       0.053700
     36 H18          4.1530    -0.7140    -2.0940 hc         1 PY9       0.044033
     37 H18A         2.9660     0.4930    -2.5580 hc         1 PY9       0.044033
     38 H18B         4.6490     0.9560    -2.3270 hc         1 PY9       0.044033
     39 HO2         -6.2740     1.1150     0.2490 ho         1 PY9       0.433000
     40 HO1         -1.1990     1.4170    -1.9740 ho         1 PY9       0.485000
     41 O2          -5.7960     0.5810     0.8950 oh         1 PY9      -0.488100
@<TRIPOS>BOND
     1     1     5 1   
     2     1     6 1   
     3     1    18 1   
     4     2     3 ar  
     5     2    14 ar  
     6     2    41 1   
     7     3     4 ar  
     8     3    22 1   
     9     4    15 ar  
    10     4    21 1   
    11     5    15 1   
    12     5    20 2   
    13     6    16 1   
    14     6    17 1   
    15     6    23 1   
    16     7    17 1   
    17     7    18 1   
    18     7    24 1   
    19     7    25 1   
    20     8    11 ar  
    21     8    16 ar  
    22     8    26 1   
    23     9    11 ar  
    24     9    13 ar  
    25     9    27 1   
    26    10    13 ar  
    27    10    16 ar  
    28    10    19 1   
    29    11    28 1   
    30    12    14 ar  
    31    12    15 ar  
    32    12    29 1   
    33    13    30 1   
    34    14    31 1   
    35    17    32 1   
    36    17    33 1   
    37    18    34 1   
    38    18    35 1   
    39    19    36 1   
    40    19    37 1   
    41    19    38 1   
    42    21    40 1   
    43    39    41 1   
@<TRIPOS>SUBSTRUCTURE
     1 PY9         1 TEMP              0 ****  ****    0 ROOT
