@<TRIPOS>MOLECULE
PY9
   41    43     1     0     0
SMALL
No Charge or Current Charge


@<TRIPOS>ATOM
      1 N1           0.3690    -1.1060    -0.1960 n          1 PY9      -0.393800
      2 C4          -4.4450     0.5500     0.7810 ca         1 PY9       0.208100
      3 C5          -4.0990     0.9750    -0.5050 ca         1 PY9      -0.283000
      4 C6          -2.7970     0.7780    -0.9780 ca         1 PY9       0.258100
      5 C7          -0.4320    -0.0770    -0.7260 c          1 PY9       0.636700
      6 C8           1.8070    -1.1980    -0.5330 c5         1 PY9       0.151000
      7 C10          0.9610    -3.4000    -0.2480 c5         1 PY9      -0.100400
      8 C13          2.2540     0.2430     1.5430 ca         1 PY9      -0.093000
      9 C15          3.9730     1.9570     1.5900 ca         1 PY9      -0.102000
     10 C17          3.6260     0.6290    -0.4340 ca         1 PY9      -0.049300
     11 C14          2.9440     1.2550     2.2290 ca         1 PY9      -0.117000
     12 C2          -2.1790    -0.2590     1.1260 ca         1 PY9       0.000000
     13 C16          4.3120     1.6440     0.2650 ca         1 PY9      -0.112000
     14 C3          -3.4860    -0.0550     1.5990 ca         1 PY9      -0.208000
     15 C1          -1.8260     0.1330    -0.1860 ca         1 PY9      -0.305600
     16 C12          2.5780    -0.0860     0.2050 ca         1 PY9      -0.080300
     17 C9           2.2050    -2.5540     0.1100 c5         1 PY9      -0.089400
     18 C11         -0.1910    -2.4370     0.1460 c5         1 PY9       0.103000
     19 C18          4.0380     0.3240    -1.8710 c3         1 PY9      -0.051800
     20 O3          -0.0000     0.6750    -1.5940 o          1 PY9      -0.651100
     21 O1          -2.4810     1.2280    -2.2180 oh         1 PY9      -0.553100
     22 H5          -4.8310     1.4650    -1.1410 ha         1 PY9       0.132000
     23 H8           1.9540    -1.1970    -1.6210 h1         1 PY9       0.069700
     24 H10          0.9330    -3.6340    -1.3190 hc         1 PY9       0.057700
     25 H10A         0.9180    -4.3500     0.2980 hc         1 PY9       0.057700
     26 H13          1.4610    -0.2910     2.0610 ha         1 PY9       0.111000
     27 H15          4.5090     2.7420     2.1190 ha         1 PY9       0.112000
     28 H14          2.6790     1.4930     3.2570 ha         1 PY9       0.111000
     29 H2          -1.4450    -0.6930     1.7990 ha         1 PY9       0.113000
     30 H16          5.1140     2.1950    -0.2200 ha         1 PY9       0.110000
     31 H3          -3.7500    -0.3620     2.6070 ha         1 PY9       0.132000
     32 H9           3.1330    -2.9580    -0.3100 hc         1 PY9       0.059700
     33 H9A          2.3360    -2.4880     1.1970 hc         1 PY9       0.059700
     34 H11         -0.3970    -2.5110     1.2220 h1         1 PY9       0.053700
     35 H11A        -1.1170    -2.6580    -0.4020 h1         1 PY9       0.053700
     36 H18          4.2980    -0.7350    -1.9930 hc         1 PY9       0.044033
     37 H18A         3.2260     0.5580    -2.5710 hc         1 PY9       0.044033
     38 H18B         4.9120     0.9090    -2.1790 hc         1 PY9       0.044033
     39 HO2         -6.2280     1.1810     0.5430 ho         1 PY9       0.472000
     40 HO1         -1.4910     1.1490    -2.2710 ho         1 PY9       0.524000
     41 O2          -5.7070     0.7430     1.2490 oh         1 PY9      -0.527100
@<TRIPOS>BOND
     1     1     5 1   
     2     1     6 1   
     3     1    18 1   
     4     2     3 ar  
     5     2    14 ar  
     6     2    41 1   
     7     3     4 ar  
     8     3    22 1   
     9     4    15 ar  
    10     4    21 1   
    11     5    15 1   
    12     5    20 2   
    13     6    16 1   
    14     6    17 1   
    15     6    23 1   
    16     7    17 1   
    17     7    18 1   
    18     7    24 1   
    19     7    25 1   
    20     8    11 ar  
    21     8    16 ar  
    22     8    26 1   
    23     9    11 ar  
    24     9    13 ar  
    25     9    27 1   
    26    10    13 ar  
    27    10    16 ar  
    28    10    19 1   
    29    11    28 1   
    30    12    14 ar  
    31    12    15 ar  
    32    12    29 1   
    33    13    30 1   
    34    14    31 1   
    35    17    32 1   
    36    17    33 1   
    37    18    34 1   
    38    18    35 1   
    39    19    36 1   
    40    19    37 1   
    41    19    38 1   
    42    21    40 1   
    43    39    41 1   
@<TRIPOS>SUBSTRUCTURE
     1 PY9         1 TEMP              0 ****  ****    0 ROOT
