@<TRIPOS>MOLECULE
PYA
   32    34     1     0     0
SMALL
No Charge or Current Charge


@<TRIPOS>ATOM
      1 C1          -0.7670     0.9560    -7.2570 ca         1 PYA      -0.096000
      2 C2          -1.6390    -0.1290    -7.1080 ca         1 PYA      -0.255300
      3 C3          -2.5840    -0.1090    -6.0750 ca         1 PYA       0.397200
      4 N4          -2.6960     0.9170    -5.2050 nb         1 PYA      -0.607000
      5 C4A         -1.8590     1.9940    -5.3210 ca         1 PYA       0.365300
      6 C4B         -1.9470     3.1070    -4.4140 ca         1 PYA       0.371300
      7 N5          -2.8700     3.1260    -3.4050 nb         1 PYA      -0.645000
      8 C6          -2.9310     4.1860    -2.5710 ca         1 PYA       0.465600
      9 C7          -2.0700     5.2870    -2.6870 ca         1 PYA      -0.222300
     10 C8          -1.1120     5.3020    -3.7080 ca         1 PYA      -0.102000
     11 C8A         -1.0510     4.2020    -4.5800 ca         1 PYA      -0.179300
     12 C9          -0.0950     4.2050    -5.6090 ca         1 PYA      -0.088000
     13 C10         -0.0090     3.1240    -6.4910 ca         1 PYA      -0.141000
     14 C1A         -0.8780     2.0280    -6.3540 ca         1 PYA      -0.145300
     15 CB          -3.9800     4.1210    -1.4720 c3         1 PYA      -0.110700
     16 CA          -5.3940     4.5770    -1.9250 c3         1 PYA       0.023500
     17 N           -5.3570     6.0280    -2.3470 n8         1 PYA      -0.902800
     18 C           -6.5250     4.1650    -0.8730 c          1 PYA       0.934600
     19 O           -6.2510     4.1060     0.3230 o          1 PYA      -0.833300
     20 OXT         -7.6500     3.9160    -1.2970 o          1 PYA      -0.833300
     21 H1          -0.0240     0.9630    -8.0530 ha         1 PYA       0.125000
     22 HC2         -1.5910    -0.9800    -7.7820 ha         1 PYA       0.130000
     23 H3          -3.2750    -0.9390    -5.9360 h4         1 PYA       0.016100
     24 H7          -2.1500     6.1180    -1.9920 ha         1 PYA       0.151000
     25 H8          -0.4360     6.1480    -3.8170 ha         1 PYA       0.123000
     26 H9           0.5850     5.0470    -5.7270 ha         1 PYA       0.123000
     27 H10          0.7370     3.1390    -7.2840 ha         1 PYA       0.122000
     28 HB3         -4.0450     3.0890    -1.1040 hc         1 PYA       0.066700
     29 HB2         -3.6610     4.7230    -0.6130 hc         1 PYA       0.066700
     30 HA          -5.6310     4.0080    -2.8350 h1         1 PYA       0.019700
     31 H           -6.2750     6.2930    -2.7230 hn         1 PYA       0.330800
     32 H2          -4.7170     6.1420    -3.1400 hn         1 PYA       0.330800
@<TRIPOS>BOND
     1     1     2 ar  
     2     1    14 ar  
     3     1    21 1   
     4     2     3 ar  
     5     2    22 1   
     6     3     4 ar  
     7     3    23 1   
     8     4     5 ar  
     9     5     6 ar  
    10     5    14 ar  
    11     6     7 ar  
    12     6    11 ar  
    13     7     8 ar  
    14     8     9 ar  
    15     8    15 1   
    16     9    10 ar  
    17     9    24 1   
    18    10    11 ar  
    19    10    25 1   
    20    11    12 ar  
    21    12    13 ar  
    22    12    26 1   
    23    13    14 ar  
    24    13    27 1   
    25    15    16 1   
    26    15    28 1   
    27    15    29 1   
    28    16    17 1   
    29    16    18 1   
    30    16    30 1   
    31    17    31 1   
    32    17    32 1   
    33    18    19 1   
    34    18    20 1   
@<TRIPOS>SUBSTRUCTURE
     1 PYA         1 TEMP              0 ****  ****    0 ROOT
