@<TRIPOS>MOLECULE
PYA
   32    34     1     0     0
SMALL
bcc


@<TRIPOS>ATOM
      1 C1          -0.8560     1.0020    -7.2130 ca         1 PYA      -0.096000
      2 C2          -1.7380    -0.0310    -7.0400 ca         1 PYA      -0.255300
      3 C3          -2.6440     0.0420    -5.9720 ca         1 PYA       0.397200
      4 N4          -2.6970     1.0440    -5.1270 nb         1 PYA      -0.607000
      5 C4A         -1.8410     2.0660    -5.2880 ca         1 PYA       0.365300
      6 C4B         -1.9010     3.1820    -4.3650 ca         1 PYA       0.371300
      7 N5          -2.8060     3.1550    -3.3770 nb         1 PYA      -0.645000
      8 C6          -2.8810     4.1650    -2.5340 ca         1 PYA       0.465600
      9 C7          -2.0370     5.2880    -2.6420 ca         1 PYA      -0.222300
     10 C8          -1.1010     5.3280    -3.6380 ca         1 PYA      -0.102000
     11 C8A         -1.0070     4.2550    -4.5410 ca         1 PYA      -0.179300
     12 C9          -0.0510     4.2390    -5.6020 ca         1 PYA      -0.088000
     13 C10          0.0080     3.1980    -6.4620 ca         1 PYA      -0.141000
     14 C1A         -0.8870     2.0920    -6.3270 ca         1 PYA      -0.145300
     15 CB          -3.9310     4.0990    -1.4660 c3         1 PYA      -0.110700
     16 CA          -5.3300     4.3670    -2.0300 c3         1 PYA       0.023500
     17 N           -5.3650     5.6620    -2.6970 n8         1 PYA      -0.902800
     18 C           -6.4290     4.2980    -0.9350 c          1 PYA       0.934600
     19 O           -6.2110     3.5630     0.0460 o          1 PYA      -0.833300
     20 OXT         -7.4610     4.9640    -1.1560 o          1 PYA      -0.833300
     21 H1          -0.1370     0.9910    -8.0240 ha         1 PYA       0.125000
     22 HC2         -1.7470    -0.8860    -7.7010 ha         1 PYA       0.130000
     23 H3          -3.3520    -0.7650    -5.8120 h4         1 PYA       0.016100
     24 H7          -2.1340     6.1010    -1.9350 ha         1 PYA       0.151000
     25 H8          -0.4330     6.1740    -3.7410 ha         1 PYA       0.123000
     26 H9           0.6240     5.0790    -5.7050 ha         1 PYA       0.123000
     27 H10          0.7310     3.1850    -7.2680 ha         1 PYA       0.122000
     28 HB3         -3.9150     3.1100    -1.0080 hc         1 PYA       0.066700
     29 HB2         -3.7090     4.8300    -0.6850 hc         1 PYA       0.066700
     30 HA          -5.5530     3.5410    -2.7270 h1         1 PYA       0.019700
     31 H           -6.3360     5.9400    -2.7640 hn         1 PYA       0.330800
     32 H2          -5.0200     5.5800    -3.6440 hn         1 PYA       0.330800
@<TRIPOS>BOND
     1     1     2 ar  
     2     1    14 ar  
     3     1    21 1   
     4     2     3 ar  
     5     2    22 1   
     6     3     4 ar  
     7     3    23 1   
     8     4     5 ar  
     9     5     6 ar  
    10     5    14 ar  
    11     6     7 ar  
    12     6    11 ar  
    13     7     8 ar  
    14     8     9 ar  
    15     8    15 1   
    16     9    10 ar  
    17     9    24 1   
    18    10    11 ar  
    19    10    25 1   
    20    11    12 ar  
    21    12    13 ar  
    22    12    26 1   
    23    13    14 ar  
    24    13    27 1   
    25    15    16 1   
    26    15    28 1   
    27    15    29 1   
    28    16    17 1   
    29    16    18 1   
    30    16    30 1   
    31    17    31 1   
    32    17    32 1   
    33    18    19 1   
    34    18    20 1   
@<TRIPOS>SUBSTRUCTURE
     1 PYA         1 TEMP              0 ****  ****    0 ROOT
