@<TRIPOS>MOLECULE
PYB
   17    17     1     0     0
SMALL
abcg2


@<TRIPOS>ATOM
      1 N            0.0330    -0.2920    -0.3270 nv         1 PYB      -1.017000
      2 CA           0.3500    -0.1230     1.0290 cc         1 PYB       0.140000
      3 CB1          1.5610     0.3800     1.5510 cc         1 PYB      -0.213000
      4 CB          -0.4210    -0.4800     2.1140 cd         1 PYB      -0.303000
      5 CG1          1.4930     0.3160     2.9330 cd         1 PYB      -0.175600
      6 NG2          0.2800    -0.2150     3.2600 na         1 PYB       0.051000
      7 CD          -0.2600    -0.4750     4.5770 c3         1 PYB       0.086900
      8 C            2.5500     0.7480     3.9030 c          1 PYB       0.731600
      9 O            2.3270     0.5930     5.1210 o          1 PYB      -0.724000
     10 OXT          3.5810     1.2320     3.3920 o          1 PYB      -0.724000
     11 H           -0.9620    -0.3610    -0.4800 hn         1 PYB       0.394000
     12 HN2          0.3830     0.4680    -0.8930 hn         1 PYB       0.394000
     13 HB1          2.4010     0.7540     0.9860 ha         1 PYB       0.133000
     14 HB          -1.4110    -0.9080     2.1530 h4         1 PYB       0.114000
     15 HD1          0.3400    -1.2010     5.1190 h1         1 PYB       0.037700
     16 HD2         -0.3190     0.4330     5.1710 h1         1 PYB       0.037700
     17 HD3         -1.2640    -0.8750     4.4550 h1         1 PYB       0.037700
@<TRIPOS>BOND
     1     1     2 1   
     2     1    11 1   
     3     1    12 1   
     4     2     3 1   
     5     2     4 2   
     6     3     5 2   
     7     3    13 1   
     8     4     6 1   
     9     4    14 1   
    10     5     6 1   
    11     5     8 1   
    12     6     7 1   
    13     7    15 1   
    14     7    16 1   
    15     7    17 1   
    16     8     9 1   
    17     8    10 1   
@<TRIPOS>SUBSTRUCTURE
     1 PYB         1 TEMP              0 ****  ****    0 ROOT
