@<TRIPOS>MOLECULE
PYB
   17    17     1     0     0
SMALL
No Charge or Current Charge


@<TRIPOS>ATOM
      1 N            0.0100    -0.1090    -0.2590 nv         1 PYB      -1.017000
      2 CA           0.2830    -0.0690     1.0680 cc         1 PYB       0.140000
      3 CB1          1.4890     0.4190     1.5790 cc         1 PYB      -0.213000
      4 CB          -0.5070    -0.4660     2.0980 cd         1 PYB      -0.303000
      5 CG1          1.4720     0.3320     2.9520 cd         1 PYB      -0.175600
      6 NG2          0.2170    -0.2230     3.2750 na         1 PYB       0.051000
      7 CD          -0.2820    -0.5150     4.6290 c3         1 PYB       0.086900
      8 C            2.5870     0.7580     3.8550 c          1 PYB       0.731600
      9 O            2.4560     0.6320     5.0630 o          1 PYB      -0.724000
     10 OXT          3.6010     1.2210     3.3510 o          1 PYB      -0.724000
     11 H           -0.9050    -0.4130    -0.5870 hn         1 PYB       0.394000
     12 HN2          0.6660     0.2800    -0.9330 hn         1 PYB       0.394000
     13 HB1          2.3040     0.8020     0.9730 ha         1 PYB       0.133000
     14 HB          -1.5020    -0.8920     2.0970 h4         1 PYB       0.114000
     15 HD1          0.3840    -1.2340     5.1200 h1         1 PYB       0.037700
     16 HD2         -0.3200     0.4120     5.2140 h1         1 PYB       0.037700
     17 HD3         -1.2900    -0.9430     4.5690 h1         1 PYB       0.037700
@<TRIPOS>BOND
     1     1     2 1   
     2     1    11 1   
     3     1    12 1   
     4     2     3 1   
     5     2     4 2   
     6     3     5 2   
     7     3    13 1   
     8     4     6 1   
     9     4    14 1   
    10     5     6 1   
    11     5     8 1   
    12     6     7 1   
    13     7    15 1   
    14     7    16 1   
    15     7    17 1   
    16     8     9 1   
    17     8    10 1   
@<TRIPOS>SUBSTRUCTURE
     1 PYB         1 TEMP              0 ****  ****    0 ROOT
