@<TRIPOS>MOLECULE
PYC
   12    12     1     0     0
SMALL
bcc


@<TRIPOS>ATOM
      1 O7           1.8710    -1.2270    -0.0110 o          1 PYC      -0.832300
      2 O8           2.0910     0.9980     0.0400 o          1 PYC      -0.832300
      3 C1           1.4310    -0.0580     0.0110 c          1 PYC       0.943200
      4 C2          -0.0580     0.0870     0.0020 cc         1 PYC      -0.151900
      5 C3          -0.8660     1.2050     0.0190 cd         1 PYC      -0.213000
      6 C4          -2.2100     0.7610    -0.0030 cd         1 PYC      -0.230000
      7 C5          -2.1790    -0.6150    -0.0320 cc         1 PYC      -0.230300
      8 N6          -0.8800    -0.9990    -0.0290 na         1 PYC      -0.134100
      9 H31         -0.5250     2.2280     0.0430 ha         1 PYC       0.142000
     10 H41         -3.0990     1.3740     0.0010 ha         1 PYC       0.114000
     11 H61         -2.9790    -1.3370    -0.0560 h4         1 PYC       0.129000
     12 HN6         -0.5430    -1.9480    -0.0470 hn         1 PYC       0.295700
@<TRIPOS>BOND
     1     1     3 1   
     2     2     3 1   
     3     3     4 1   
     4     4     5 2   
     5     4     8 1   
     6     5     6 1   
     7     5     9 1   
     8     6     7 2   
     9     6    10 1   
    10     7     8 1   
    11     7    11 1   
    12     8    12 1   
@<TRIPOS>SUBSTRUCTURE
     1 PYC         1 TEMP              0 ****  ****    0 ROOT
