@<TRIPOS>MOLECULE
PYC
   12    12     1     0     0
SMALL
No Charge or Current Charge


@<TRIPOS>ATOM
      1 O7           2.0140    -1.0790    -0.0060 o          1 PYC      -0.727000
      2 O8           2.0580     1.0680     0.0410 o          1 PYC      -0.727000
      3 C1           1.4510     0.0060     0.0130 c          1 PYC       0.732600
      4 C2          -0.0370     0.0180    -0.0000 cc         1 PYC      -0.202600
      5 C3          -0.8320     1.1390     0.0170 cd         1 PYC      -0.195000
      6 C4          -2.1830     0.7460    -0.0030 cd         1 PYC      -0.212000
      7 C5          -2.2500    -0.6180    -0.0330 cc         1 PYC      -0.263000
      8 N6          -0.9250    -1.0640    -0.0310 na         1 PYC      -0.083000
      9 H31         -0.4730     2.1650     0.0420 ha         1 PYC       0.124000
     10 H41         -3.0360     1.4180     0.0040 ha         1 PYC       0.096000
     11 H61         -3.0990    -1.2910    -0.0550 h4         1 PYC       0.111000
     12 HN6         -0.6340    -2.0390    -0.0500 hn         1 PYC       0.346000
@<TRIPOS>BOND
     1     1     3 1   
     2     2     3 1   
     3     3     4 1   
     4     4     5 2   
     5     4     8 1   
     6     5     6 1   
     7     5     9 1   
     8     6     7 2   
     9     6    10 1   
    10     7     8 1   
    11     7    11 1   
    12     8    12 1   
@<TRIPOS>SUBSTRUCTURE
     1 PYC         1 TEMP              0 ****  ****    0 ROOT
