@<TRIPOS>MOLECULE
PYD
   18    18     1     0     0
SMALL
No Charge or Current Charge


@<TRIPOS>ATOM
      1 N1           1.2690     0.0470     1.1580 nb         1 PYD      -0.219000
      2 C2          -0.0390     0.0210     1.4910 ca         1 PYD       0.178300
      3 CM2         -0.3710     0.0100     2.9730 c3         1 PYD      -0.134400
      4 N3          -1.0800     0.0150     0.6330 nb         1 PYD      -0.277000
      5 C4          -0.7770     0.0330    -0.6720 ca         1 PYD       0.395900
      6 N4          -1.8450     0.0220    -1.5090 nv         1 PYD      -1.086900
      7 C5           0.5480     0.0570    -1.1400 ca         1 PYD      -0.264300
      8 C6           1.5570     0.0640    -0.1590 ca         1 PYD       0.138900
      9 C7           0.9030     0.0770    -2.6240 c3         1 PYD      -0.026800
     10 HM21        -0.5010     1.0320     3.3490 hc         1 PYD       0.056700
     11 HM22        -1.2980    -0.5410     3.1720 hc         1 PYD       0.056700
     12 HM23         0.4250    -0.4640     3.5600 hc         1 PYD       0.056700
     13 HN41        -2.7570    -0.2110    -1.1220 hn         1 PYD       0.496500
     14 HN42        -1.6960    -0.1990    -2.4900 hn         1 PYD       0.496500
     15 HC6          2.6130     0.0840    -0.4260 h4         1 PYD       0.016100
     16 HC71         0.5470    -0.8290    -3.1290 hc         1 PYD       0.039033
     17 HC72         0.4560     0.9430    -3.1270 hc         1 PYD       0.039033
     18 HC73         1.9870     0.1330    -2.7790 hc         1 PYD       0.039033
@<TRIPOS>BOND
     1     1     2 ar  
     2     1     8 ar  
     3     2     3 1   
     4     2     4 ar  
     5     3    10 1   
     6     3    11 1   
     7     3    12 1   
     8     4     5 ar  
     9     5     6 1   
    10     5     7 ar  
    11     6    13 1   
    12     6    14 1   
    13     7     8 ar  
    14     7     9 1   
    15     8    15 1   
    16     9    16 1   
    17     9    17 1   
    18     9    18 1   
@<TRIPOS>SUBSTRUCTURE
     1 PYD         1 TEMP              0 ****  ****    0 ROOT
