@<TRIPOS>MOLECULE
PYD
   18    18     1     0     0
SMALL
bcc


@<TRIPOS>ATOM
      1 N1           1.2630     0.0230     1.1600 nb         1 PYD      -0.745000
      2 C2          -0.0170     0.0010     1.4950 ca         1 PYD       0.704300
      3 CM2         -0.3590     0.0030     2.9530 c3         1 PYD      -0.134400
      4 N3          -1.0390    -0.0090     0.6460 nb         1 PYD      -0.803000
      5 C4          -0.7700     0.0070    -0.6590 ca         1 PYD       0.724200
      6 N4          -1.8100     0.0100    -1.5060 nv         1 PYD      -0.976500
      7 C5           0.5640     0.0320    -1.1340 ca         1 PYD      -0.394900
      8 C6           1.5220     0.0380    -0.1530 ca         1 PYD       0.467200
      9 C7           0.8870     0.0500    -2.5940 c3         1 PYD      -0.026800
     10 HM21        -0.7950     0.9630     3.2380 hc         1 PYD       0.056700
     11 HM22        -1.0990    -0.7640     3.1820 hc         1 PYD       0.056700
     12 HM23         0.5250    -0.1630     3.5630 hc         1 PYD       0.056700
     13 HN41        -2.7460    -0.0650    -1.1470 hn         1 PYD       0.441300
     14 HN42        -1.6850    -0.0510    -2.5000 hn         1 PYD       0.441300
     15 HC6          2.5710     0.0560    -0.4340 h4         1 PYD       0.016100
     16 HC71         0.4990    -0.8330    -3.1080 hc         1 PYD       0.039033
     17 HC72         0.4640     0.9250    -3.0930 hc         1 PYD       0.039033
     18 HC73         1.9650     0.0720    -2.7490 hc         1 PYD       0.039033
@<TRIPOS>BOND
     1     1     2 ar  
     2     1     8 ar  
     3     2     3 1   
     4     2     4 ar  
     5     3    10 1   
     6     3    11 1   
     7     3    12 1   
     8     4     5 ar  
     9     5     6 1   
    10     5     7 ar  
    11     6    13 1   
    12     6    14 1   
    13     7     8 ar  
    14     7     9 1   
    15     8    15 1   
    16     9    16 1   
    17     9    17 1   
    18     9    18 1   
@<TRIPOS>SUBSTRUCTURE
     1 PYD         1 TEMP              0 ****  ****    0 ROOT
