@<TRIPOS>MOLECULE
PYE
   16    16     1     0     0
SMALL
abcg2


@<TRIPOS>ATOM
      1 C1          -1.1620    -0.2620     0.7490 c6         1 PYE       0.154600
      2 C2          -1.2540     0.2230    -0.6890 c6         1 PYE      -0.112400
      3 C3          -0.0100    -0.1970    -1.4670 c6         1 PYE      -0.074400
      4 C4           1.2460     0.2280    -0.7120 c6         1 PYE      -0.112400
      5 C5           1.1830    -0.2580     0.7270 c6         1 PYE       0.154600
      6 O5           0.0150     0.1890     1.3860 os         1 PYE      -0.452000
      7 H11         -2.0030     0.1070     1.3410 h1         1 PYE       0.041700
      8 H12         -1.2060    -1.3620     0.7680 h1         1 PYE       0.041700
      9 H21         -1.3520     1.3130    -0.7020 hc         1 PYE       0.048700
     10 H22         -2.1580    -0.1830    -1.1480 hc         1 PYE       0.048700
     11 H31         -0.0090    -1.2860    -1.5850 hc         1 PYE       0.040200
     12 H32         -0.0210     0.2280    -2.4720 hc         1 PYE       0.040200
     13 H41          2.1430    -0.1750    -1.1880 hc         1 PYE       0.048700
     14 H42          1.3400     1.3180    -0.7270 hc         1 PYE       0.048700
     15 H51          2.0330     0.1130     1.3040 h1         1 PYE       0.041700
     16 H52          1.2300    -1.3580     0.7440 h1         1 PYE       0.041700
@<TRIPOS>BOND
     1     1     2 1   
     2     1     6 1   
     3     1     7 1   
     4     1     8 1   
     5     2     3 1   
     6     2     9 1   
     7     2    10 1   
     8     3     4 1   
     9     3    11 1   
    10     3    12 1   
    11     4     5 1   
    12     4    13 1   
    13     4    14 1   
    14     5     6 1   
    15     5    15 1   
    16     5    16 1   
@<TRIPOS>SUBSTRUCTURE
     1 PYE         1 TEMP              0 ****  ****    0 ROOT
