@<TRIPOS>MOLECULE
PYE
   16    16     1     0     0
SMALL
No Charge or Current Charge


@<TRIPOS>ATOM
      1 C1          -1.2010    -0.2720     0.7730 c6         1 PYE       0.154600
      2 C2          -1.2780     0.2230    -0.6930 c6         1 PYE      -0.112400
      3 C3          -0.0100    -0.1970    -1.4780 c6         1 PYE      -0.074400
      4 C4           1.2700     0.2280    -0.7160 c6         1 PYE      -0.112400
      5 C5           1.2220    -0.2680     0.7500 c6         1 PYE       0.154600
      6 O5           0.0150     0.2050     1.3900 os         1 PYE      -0.452000
      7 H11         -2.0630     0.1030     1.3420 h1         1 PYE       0.041700
      8 H12         -1.2190    -1.3710     0.8070 h1         1 PYE       0.041700
      9 H21         -1.3800     1.3170    -0.7040 hc         1 PYE       0.048700
     10 H22         -2.1760    -0.1820    -1.1780 hc         1 PYE       0.048700
     11 H31         -0.0100    -1.2870    -1.6190 hc         1 PYE       0.040200
     12 H32         -0.0210     0.2490    -2.4820 hc         1 PYE       0.040200
     13 H41          2.1600    -0.1750    -1.2180 hc         1 PYE       0.048700
     14 H42          1.3680     1.3220    -0.7300 hc         1 PYE       0.048700
     15 H51          2.0930     0.1100     1.3040 h1         1 PYE       0.041700
     16 H52          1.2440    -1.3670     0.7840 h1         1 PYE       0.041700
@<TRIPOS>BOND
     1     1     2 1   
     2     1     6 1   
     3     1     7 1   
     4     1     8 1   
     5     2     3 1   
     6     2     9 1   
     7     2    10 1   
     8     3     4 1   
     9     3    11 1   
    10     3    12 1   
    11     4     5 1   
    12     4    13 1   
    13     4    14 1   
    14     5     6 1   
    15     5    15 1   
    16     5    16 1   
@<TRIPOS>SUBSTRUCTURE
     1 PYE         1 TEMP              0 ****  ****    0 ROOT
