@<TRIPOS>MOLECULE
PYF
   15    15     1     0     0
SMALL
abcg2


@<TRIPOS>ATOM
      1 N1           1.1630     0.1230    -1.6460 nb         1 PYF      -0.666000
      2 C2           1.1690     0.3080    -0.3300 ca         1 PYF       0.343900
      3 C3           0.0340     0.2590     0.4690 ca         1 PYF      -0.141300
      4 C4          -1.1760    -0.0200    -0.1580 ca         1 PYF      -0.048000
      5 C5          -1.1960    -0.2210    -1.5270 ca         1 PYF      -0.168000
      6 C6          -0.0000    -0.1350    -2.2280 ca         1 PYF       0.337900
      7 C7           0.1140     0.5040     1.9470 c3         1 PYF       0.213900
      8 O7          -0.5490    -0.5430     2.6200 oh         1 PYF      -0.655000
      9 H2           2.1360     0.5090     0.1220 h4         1 PYF       0.016100
     10 H4          -2.0930    -0.0770     0.4150 ha         1 PYF       0.126000
     11 H5          -2.1180    -0.4380    -2.0490 ha         1 PYF       0.124000
     12 H6           0.0160    -0.2840    -3.3020 h4         1 PYF       0.018100
     13 H71         -0.3470     1.4740     2.1710 h1         1 PYF       0.027200
     14 H72          1.1670     0.5830     2.2450 h1         1 PYF       0.027200
     15 HO7         -0.6690    -0.2780     3.5360 ho         1 PYF       0.444000
@<TRIPOS>BOND
     1     1     2 ar  
     2     1     6 ar  
     3     2     3 ar  
     4     2     9 1   
     5     3     4 ar  
     6     3     7 1   
     7     4     5 ar  
     8     4    10 1   
     9     5     6 ar  
    10     5    11 1   
    11     6    12 1   
    12     7     8 1   
    13     7    13 1   
    14     7    14 1   
    15     8    15 1   
@<TRIPOS>SUBSTRUCTURE
     1 PYF         1 TEMP              0 ****  ****    0 ROOT
