@<TRIPOS>MOLECULE
PYF
   15    15     1     0     0
SMALL
No Charge or Current Charge


@<TRIPOS>ATOM
      1 N1           1.2120    -0.0740    -1.5930 nb         1 PYF      -0.666000
      2 C2           1.1680     0.1670    -0.2610 ca         1 PYF       0.343900
      3 C3          -0.0340     0.2790     0.4640 ca         1 PYF      -0.141300
      4 C4          -1.2520     0.1320    -0.2240 ca         1 PYF      -0.048000
      5 C5          -1.2100    -0.1200    -1.6050 ca         1 PYF      -0.168000
      6 C6           0.0360    -0.2140    -2.2470 ca         1 PYF       0.337900
      7 C7          -0.0070     0.5570     1.9560 c3         1 PYF       0.213900
      8 O7          -0.1370    -0.6670     2.6840 oh         1 PYF      -0.655000
      9 H2           2.1300     0.2750     0.2390 h4         1 PYF       0.016100
     10 H4          -2.2040     0.2080     0.2990 ha         1 PYF       0.126000
     11 H5          -2.1260    -0.2410    -2.1760 ha         1 PYF       0.124000
     12 H6           0.0950    -0.4080    -3.3180 h4         1 PYF       0.018100
     13 H71         -0.8280     1.2420     2.2110 h1         1 PYF       0.027200
     14 H72          0.9340     1.0590     2.2180 h1         1 PYF       0.027200
     15 HO7         -0.1270    -0.4310     3.6380 ho         1 PYF       0.444000
@<TRIPOS>BOND
     1     1     2 ar  
     2     1     6 ar  
     3     2     3 ar  
     4     2     9 1   
     5     3     4 ar  
     6     3     7 1   
     7     4     5 ar  
     8     4    10 1   
     9     5     6 ar  
    10     5    11 1   
    11     6    12 1   
    12     7     8 1   
    13     7    13 1   
    14     7    14 1   
    15     8    15 1   
@<TRIPOS>SUBSTRUCTURE
     1 PYF         1 TEMP              0 ****  ****    0 ROOT
