@<TRIPOS>MOLECULE
PYG
   15    15     1     0     0
SMALL
No Charge or Current Charge


@<TRIPOS>ATOM
      1 C1          -0.0780     0.0500     1.3190 ca         1 PYG       0.088600
      2 C2          -0.8120    -0.1720     0.1280 ca         1 PYG       0.095100
      3 C3          -0.1420    -0.1940    -1.1150 ca         1 PYG       0.088600
      4 C4           1.2480     0.0050    -1.1700 ca         1 PYG      -0.165500
      5 C5           1.9740     0.2250     0.0130 ca         1 PYG      -0.088000
      6 C6           1.3130     0.2480     1.2530 ca         1 PYG      -0.165500
      7 O1          -0.7010     0.0770     2.5400 oh         1 PYG      -0.542600
      8 O2          -2.1700    -0.3690     0.1500 oh         1 PYG      -0.515100
      9 O3          -0.8480    -0.4080    -2.2690 oh         1 PYG      -0.542600
     10 H4           1.7710    -0.0100    -2.1240 ha         1 PYG       0.120500
     11 H5           3.0510     0.3790    -0.0320 ha         1 PYG       0.118000
     12 H6           1.8890     0.4200     2.1600 ha         1 PYG       0.120500
     13 HO1         -0.0260     0.2420     3.2340 ho         1 PYG       0.460500
     14 HO2         -2.4420    -0.4990    -0.7860 ho         1 PYG       0.467000
     15 HO3         -0.2250    -0.3900    -3.0280 ho         1 PYG       0.460500
@<TRIPOS>BOND
     1     1     2 ar  
     2     1     6 ar  
     3     1     7 1   
     4     2     3 ar  
     5     2     8 1   
     6     3     4 ar  
     7     3     9 1   
     8     4     5 ar  
     9     4    10 1   
    10     5     6 ar  
    11     5    11 1   
    12     6    12 1   
    13     7    13 1   
    14     8    14 1   
    15     9    15 1   
@<TRIPOS>SUBSTRUCTURE
     1 PYG         1 TEMP              0 ****  ****    0 ROOT
