@<TRIPOS>MOLECULE
PYG
   15    15     1     0     0
SMALL
abcg2


@<TRIPOS>ATOM
      1 C1          -0.0130    -0.0450     1.2770 ca         1 PYG       0.088600
      2 C2          -0.7200    -0.3090     0.1030 ca         1 PYG       0.095100
      3 C3          -0.0320    -0.3250    -1.1110 ca         1 PYG       0.088600
      4 C4           1.3300    -0.0700    -1.1640 ca         1 PYG      -0.165500
      5 C5           2.0220     0.1980     0.0100 ca         1 PYG      -0.088000
      6 C6           1.3580     0.1920     1.2290 ca         1 PYG      -0.165500
      7 O1          -0.6870    -0.0710     2.4570 oh         1 PYG      -0.542600
      8 O2          -2.0500    -0.5460     0.1870 oh         1 PYG      -0.515100
      9 O3          -0.7590    -0.6000    -2.2330 oh         1 PYG      -0.542600
     10 H4           1.8690    -0.0650    -2.1030 ha         1 PYG       0.120500
     11 H5           3.0910     0.3670    -0.0290 ha         1 PYG       0.118000
     12 H6           1.8760     0.4020     2.1600 ha         1 PYG       0.120500
     13 HO1         -0.4070     0.6560     3.0210 ho         1 PYG       0.460500
     14 HO2         -2.4970    -0.2180    -0.6020 ho         1 PYG       0.467000
     15 HO3         -0.5790     0.0380    -2.9300 ho         1 PYG       0.460500
@<TRIPOS>BOND
     1     1     2 ar  
     2     1     6 ar  
     3     1     7 1   
     4     2     3 ar  
     5     2     8 1   
     6     3     4 ar  
     7     3     9 1   
     8     4     5 ar  
     9     4    10 1   
    10     5     6 ar  
    11     5    11 1   
    12     6    12 1   
    13     7    13 1   
    14     8    14 1   
    15     9    15 1   
@<TRIPOS>SUBSTRUCTURE
     1 PYG         1 TEMP              0 ****  ****    0 ROOT
