@<TRIPOS>MOLECULE
PYH
   38    38     1     0     0
SMALL
abcg2


@<TRIPOS>ATOM
      1 CAA          3.9820     2.4640     0.0980 c3         1 PYH      -0.083100
      2 CAP          4.5440     1.0850     0.3820 c5         1 PYH      -0.082700
      3 CAJ          6.0400     0.9140     0.0940 c5         1 PYH      -0.174700
      4 CAF          6.0860    -0.4860    -0.4320 c2         1 PYH       0.391200
      5 NAL          4.9760    -1.0100    -0.7420 n2         1 PYH      -0.527900
      6 CAR          3.9210    -0.0360    -0.4870 c5         1 PYH       0.004500
      7 CAO          2.7480    -0.6990     0.2100 c          1 PYH       0.611100
      8 OAD          2.9140    -1.5080     1.1120 o          1 PYH      -0.600100
      9 NZ           1.5400    -0.2940    -0.1970 ns         1 PYH      -0.500900
     10 CE           0.3020    -0.7770     0.3810 c3         1 PYH       0.100000
     11 CD          -0.8900    -0.0580    -0.2280 c3         1 PYH      -0.095400
     12 CG          -2.2140    -0.5600     0.3320 c3         1 PYH      -0.071400
     13 CB          -3.4100     0.1770    -0.2570 c3         1 PYH      -0.050400
     14 CA          -4.7600    -0.3060     0.2770 c3         1 PYH       0.014500
     15 C           -5.8770     0.6500    -0.2100 c          1 PYH       0.691000
     16 OXT         -5.8530     1.8050     0.2670 o          1 PYH      -0.735000
     17 O           -6.6950     0.2120    -1.0430 o          1 PYH      -0.735000
     18 N           -4.9520    -1.7110    -0.0530 n8         1 PYH      -1.001200
     19 HA          -4.7230    -0.2290     1.3700 h1         1 PYH       0.037700
     20 H           -5.7990    -2.0370     0.3990 hn         1 PYH       0.381500
     21 HN2         -5.1600    -1.7710    -1.0440 hn         1 PYH       0.381500
     22 HB1         -3.3140     1.2450    -0.0490 hc         1 PYH       0.037200
     23 HB2         -3.3980     0.0760    -1.3500 hc         1 PYH       0.037200
     24 HG1         -2.3140    -1.6310     0.1410 hc         1 PYH       0.041700
     25 HG2         -2.2200    -0.4400     1.4210 hc         1 PYH       0.041700
     26 HD1         -0.7960     1.0180    -0.0480 hc         1 PYH       0.035700
     27 HD2         -0.8800    -0.1940    -1.3150 hc         1 PYH       0.035700
     28 HE1          0.2080    -1.8550     0.2160 h1         1 PYH       0.050200
     29 HE2          0.3170    -0.6230     1.4630 h1         1 PYH       0.050200
     30 HZ           1.4790     0.3380    -0.9790 hn         1 PYH       0.309500
     31 HAR          3.6000     0.3730    -1.4540 h1         1 PYH       0.071700
     32 HAF          7.0140    -1.0320    -0.5780 h4         1 PYH       0.026800
     33 HAJ1         6.3960     1.6050    -0.6790 hc         1 PYH       0.058700
     34 HAJ2         6.6780     1.0600     0.9670 hc         1 PYH       0.058700
     35 HAP          4.3760     0.8380     1.4350 hc         1 PYH       0.075700
     36 HAA1         4.1410     2.7450    -0.9460 hc         1 PYH       0.038033
     37 HAA2         2.9090     2.5040     0.2930 hc         1 PYH       0.038033
     38 HAA3         4.4550     3.2210     0.7240 hc         1 PYH       0.038033
@<TRIPOS>BOND
     1     1     2 1   
     2     1    36 1   
     3     1    37 1   
     4     1    38 1   
     5     2     3 1   
     6     2     6 1   
     7     2    35 1   
     8     3     4 1   
     9     3    33 1   
    10     3    34 1   
    11     4     5 2   
    12     4    32 1   
    13     5     6 1   
    14     6     7 1   
    15     6    31 1   
    16     7     8 2   
    17     7     9 1   
    18     9    10 1   
    19     9    30 1   
    20    10    11 1   
    21    10    28 1   
    22    10    29 1   
    23    11    12 1   
    24    11    26 1   
    25    11    27 1   
    26    12    13 1   
    27    12    24 1   
    28    12    25 1   
    29    13    14 1   
    30    13    22 1   
    31    13    23 1   
    32    14    15 1   
    33    14    18 1   
    34    14    19 1   
    35    15    16 1   
    36    15    17 1   
    37    18    20 1   
    38    18    21 1   
@<TRIPOS>SUBSTRUCTURE
     1 PYH         1 TEMP              0 ****  ****    0 ROOT
