@<TRIPOS>MOLECULE
PYH
   38    38     1     0     0
SMALL
No Charge or Current Charge


@<TRIPOS>ATOM
      1 CAA          3.9590     2.4320     0.3780 c3         1 PYH      -0.083100
      2 CAP          4.6720     1.0630     0.4200 c5         1 PYH      -0.082700
      3 CAJ          6.0680     1.0360    -0.2400 c5         1 PYH      -0.174700
      4 CAF          6.1580    -0.4070    -0.6520 c2         1 PYH       0.391200
      5 NAL          5.0540    -1.0620    -0.7430 n2         1 PYH      -0.527900
      6 CAR          3.9690    -0.0780    -0.3930 c5         1 PYH       0.004500
      7 CAO          2.8250    -0.7110     0.4740 c          1 PYH       0.611100
      8 OAD          2.9450    -1.3760     1.4970 o          1 PYH      -0.600100
      9 NZ           1.6010    -0.4260    -0.0960 ns         1 PYH      -0.500900
     10 CE           0.3180    -0.8550     0.4560 c3         1 PYH       0.100000
     11 CD          -0.8610    -0.1510    -0.2420 c3         1 PYH      -0.095400
     12 CG          -2.2350    -0.5790     0.3220 c3         1 PYH      -0.071400
     13 CB          -3.4230     0.1270    -0.3780 c3         1 PYH      -0.050400
     14 CA          -4.8190    -0.2300     0.2030 c3         1 PYH       0.014500
     15 C           -5.9090     0.7920    -0.3260 c          1 PYH       0.691000
     16 OXT         -6.3710     1.6060     0.4620 o          1 PYH      -0.735000
     17 O           -6.3310     0.6550    -1.4670 o          1 PYH      -0.735000
     18 N           -5.1310    -1.6940     0.0020 n8         1 PYH      -1.001200
     19 HA          -4.7620    -0.0720     1.2900 h1         1 PYH       0.037700
     20 H           -6.0340    -1.9060     0.4430 hn         1 PYH       0.381500
     21 HN2         -5.3200    -1.8460    -0.9970 hn         1 PYH       0.381500
     22 HB1         -3.2790     1.2110    -0.2870 hc         1 PYH       0.037200
     23 HB2         -3.4040    -0.1000    -1.4510 hc         1 PYH       0.037200
     24 HG1         -2.3390    -1.6660     0.2160 hc         1 PYH       0.041700
     25 HG2         -2.2670    -0.3570     1.3960 hc         1 PYH       0.041700
     26 HD1         -0.7470     0.9340    -0.1310 hc         1 PYH       0.035700
     27 HD2         -0.8270    -0.3730    -1.3160 hc         1 PYH       0.035700
     28 HE1          0.2260    -1.9430     0.3340 h1         1 PYH       0.050200
     29 HE2          0.2970    -0.6250     1.5300 h1         1 PYH       0.050200
     30 HZ           1.6040     0.1230    -0.9470 hn         1 PYH       0.309500
     31 HAR          3.5370     0.3130    -1.3250 h1         1 PYH       0.071700
     32 HAF          7.1080    -0.8930    -0.8600 h4         1 PYH       0.026800
     33 HAJ1         6.1320     1.6870    -1.1190 hc         1 PYH       0.058700
     34 HAJ2         6.8690     1.3180     0.4530 hc         1 PYH       0.058700
     35 HAP          4.7610     0.7790     1.4770 hc         1 PYH       0.075700
     36 HAA1         3.8290     2.7830    -0.6530 hc         1 PYH       0.038033
     37 HAA2         2.9650     2.3730     0.8390 hc         1 PYH       0.038033
     38 HAA3         4.5340     3.1910     0.9210 hc         1 PYH       0.038033
@<TRIPOS>BOND
     1     1     2 1   
     2     1    36 1   
     3     1    37 1   
     4     1    38 1   
     5     2     3 1   
     6     2     6 1   
     7     2    35 1   
     8     3     4 1   
     9     3    33 1   
    10     3    34 1   
    11     4     5 2   
    12     4    32 1   
    13     5     6 1   
    14     6     7 1   
    15     6    31 1   
    16     7     8 2   
    17     7     9 1   
    18     9    10 1   
    19     9    30 1   
    20    10    11 1   
    21    10    28 1   
    22    10    29 1   
    23    11    12 1   
    24    11    26 1   
    25    11    27 1   
    26    12    13 1   
    27    12    24 1   
    28    12    25 1   
    29    13    14 1   
    30    13    22 1   
    31    13    23 1   
    32    14    15 1   
    33    14    18 1   
    34    14    19 1   
    35    15    16 1   
    36    15    17 1   
    37    18    20 1   
    38    18    21 1   
@<TRIPOS>SUBSTRUCTURE
     1 PYH         1 TEMP              0 ****  ****    0 ROOT
