@<TRIPOS>MOLECULE
PYJ
   18    18     1     0     0
SMALL
bcc


@<TRIPOS>ATOM
      1 CB          -1.9730    -0.0880    -0.5590 c3         1 PYJ      -0.032100
      2 CX          -2.7750     0.0800     0.7310 c3         1 PYJ      -0.086100
      3 CG          -0.4890    -0.0700    -0.3110 ca         1 PYJ      -0.077300
      4 CD1          0.2440    -1.2520    -0.2460 ca         1 PYJ      -0.126000
      5 CD2          0.1780     1.1360    -0.1010 ca         1 PYJ      -0.126000
      6 CE1          1.6080    -1.2330     0.0220 ca         1 PYJ      -0.127000
      7 CE2          1.5400     1.1610     0.1680 ca         1 PYJ      -0.127000
      8 CZ           2.2610    -0.0250     0.2300 ca         1 PYJ      -0.131000
      9 HCB1        -2.2540    -1.0270    -1.0400 hc         1 PYJ       0.044700
     10 HCB2        -2.2400     0.7100    -1.2560 hc         1 PYJ       0.044700
     11 HCX1        -3.8460     0.0730     0.5260 hc         1 PYJ       0.034367
     12 HCX2        -2.5640    -0.7280     1.4320 hc         1 PYJ       0.034367
     13 HCX3        -2.5360     1.0220     1.2250 hc         1 PYJ       0.034367
     14 HCD1        -0.2560    -2.1990    -0.4120 ha         1 PYJ       0.127500
     15 HCD2        -0.3750     2.0670    -0.1520 ha         1 PYJ       0.127500
     16 HCE1         2.1610    -2.1630     0.0670 ha         1 PYJ       0.128500
     17 HCE2         2.0410     2.1080     0.3260 ha         1 PYJ       0.128500
     18 HCZ1         3.3230    -0.0080     0.4340 ha         1 PYJ       0.129000
@<TRIPOS>BOND
     1     1     2 1   
     2     1     3 1   
     3     1     9 1   
     4     1    10 1   
     5     2    11 1   
     6     2    12 1   
     7     2    13 1   
     8     3     4 ar  
     9     3     5 ar  
    10     4     6 ar  
    11     4    14 1   
    12     5     7 ar  
    13     5    15 1   
    14     6     8 ar  
    15     6    16 1   
    16     7     8 ar  
    17     7    17 1   
    18     8    18 1   
@<TRIPOS>SUBSTRUCTURE
     1 PYJ         1 TEMP              0 ****  ****    0 ROOT
