@<TRIPOS>MOLECULE
PYJ
   18    18     1     0     0
SMALL
No Charge or Current Charge


@<TRIPOS>ATOM
      1 CB          -1.9840    -0.0190    -0.5640 c3         1 PYJ      -0.032100
      2 CX          -2.8090    -0.0230     0.7350 c3         1 PYJ      -0.086100
      3 CG          -0.4850    -0.0230    -0.2930 ca         1 PYJ      -0.077300
      4 CD1          0.2120    -1.2400    -0.1680 ca         1 PYJ      -0.108000
      5 CD2          0.2160     1.1920    -0.1590 ca         1 PYJ      -0.108000
      6 CE1          1.5950    -1.2430     0.0860 ca         1 PYJ      -0.109000
      7 CE2          1.5980     1.1890     0.0950 ca         1 PYJ      -0.109000
      8 CZ           2.2880    -0.0290     0.2170 ca         1 PYJ      -0.113000
      9 HCB1        -2.2620    -0.8940    -1.1660 hc         1 PYJ       0.044700
     10 HCB2        -2.2600     0.8600    -1.1590 hc         1 PYJ       0.044700
     11 HCX1        -3.8820    -0.0210     0.5080 hc         1 PYJ       0.034367
     12 HCX2        -2.5860    -0.9150     1.3330 hc         1 PYJ       0.034367
     13 HCX3        -2.5830     0.8640     1.3390 hc         1 PYJ       0.034367
     14 HCD1        -0.3180    -2.1850    -0.2660 ha         1 PYJ       0.109500
     15 HCD2        -0.3120     2.1390    -0.2500 ha         1 PYJ       0.109500
     16 HCE1         2.1280    -2.1870     0.1820 ha         1 PYJ       0.110500
     17 HCE2         2.1340     2.1300     0.1980 ha         1 PYJ       0.110500
     18 HCZ1         3.3580    -0.0310     0.4140 ha         1 PYJ       0.111000
@<TRIPOS>BOND
     1     1     2 1   
     2     1     3 1   
     3     1     9 1   
     4     1    10 1   
     5     2    11 1   
     6     2    12 1   
     7     2    13 1   
     8     3     4 ar  
     9     3     5 ar  
    10     4     6 ar  
    11     4    14 1   
    12     5     7 ar  
    13     5    15 1   
    14     6     8 ar  
    15     6    16 1   
    16     7     8 ar  
    17     7    17 1   
    18     8    18 1   
@<TRIPOS>SUBSTRUCTURE
     1 PYJ         1 TEMP              0 ****  ****    0 ROOT
