@<TRIPOS>MOLECULE
PYM
   11    10     1     0     0
SMALL
No Charge or Current Charge


@<TRIPOS>ATOM
      1 C1           0.2140    -0.0110    -0.7570 c          1 PYM       0.499100
      2 N1          -0.8130    -0.0170    -1.6530 nt         1 PYM      -0.585000
      3 O1           1.3750     0.0150    -1.1500 o          1 PYM      -0.587100
      4 C2          -0.2070    -0.0400     0.7920 c          1 PYM       0.499100
      5 O2          -1.3870    -0.0650     1.1430 o          1 PYM      -0.511100
      6 C3           0.9240    -0.0340     1.8260 c3         1 PYM      -0.188100
      7 HN12        -0.6120     0.0010    -2.6430 hn         1 PYM       0.326500
      8 HN11        -1.7690    -0.0380    -1.3240 hn         1 PYM       0.326500
      9 H33          0.5560    -0.0540     2.8580 hc         1 PYM       0.073033
     10 H32          1.5980    -0.8720     1.6170 hc         1 PYM       0.073033
     11 H31          1.5680     0.8330     1.6400 hc         1 PYM       0.073033
@<TRIPOS>BOND
     1     1     2 1   
     2     1     3 2   
     3     1     4 1   
     4     2     7 1   
     5     2     8 1   
     6     4     5 2   
     7     4     6 1   
     8     6     9 1   
     9     6    10 1   
    10     6    11 1   
@<TRIPOS>SUBSTRUCTURE
     1 PYM         1 TEMP              0 ****  ****    0 ROOT
