@<TRIPOS>MOLECULE
PYM
   11    10     1     0     0
SMALL
bcc


@<TRIPOS>ATOM
      1 C1           0.2240    -0.0110    -0.7290 c          1 PYM       0.566100
      2 N1          -0.8000    -0.0170    -1.5790 nt         1 PYM      -0.652000
      3 O1           1.4040     0.0140    -1.0330 o          1 PYM      -0.587100
      4 C2          -0.1940    -0.0400     0.7540 c          1 PYM       0.499100
      5 O2          -1.3630    -0.0680     1.0480 o          1 PYM      -0.511100
      6 C3           0.9210    -0.0320     1.7460 c3         1 PYM      -0.188100
      7 HN12        -0.6420    -0.0010    -2.5740 hn         1 PYM       0.326500
      8 HN11        -1.7510    -0.0360    -1.2520 hn         1 PYM       0.326500
      9 H33          0.5310    -0.0510     2.7600 hc         1 PYM       0.073033
     10 H32          1.5720    -0.8940     1.5940 hc         1 PYM       0.073033
     11 H31          1.5440     0.8540     1.6140 hc         1 PYM       0.073033
@<TRIPOS>BOND
     1     1     2 1   
     2     1     3 2   
     3     1     4 1   
     4     2     7 1   
     5     2     8 1   
     6     4     5 2   
     7     4     6 1   
     8     6     9 1   
     9     6    10 1   
    10     6    11 1   
@<TRIPOS>SUBSTRUCTURE
     1 PYM         1 TEMP              0 ****  ****    0 ROOT
