@<TRIPOS>MOLECULE
PYN
   67    71     1     0     0
SMALL
bcc


@<TRIPOS>ATOM
      1 C           -2.7930     0.1220    -1.1520 ca         1 PYN      -0.183300
      2 C1          -1.3700     0.0740    -1.0410 ca         1 PYN       0.459100
      3 C2          -3.5380     0.1560     0.0210 ca         1 PYN      -0.043000
      4 C3          -2.8890     0.1400     1.2460 ca         1 PYN      -0.183300
      5 C4          -1.4600     0.0900     1.2540 ca         1 PYN       0.459100
      6 C5          -0.7680     0.0690     2.4970 ca         1 PYN      -0.239800
      7 C6          -1.4650     0.0930     3.6770 ca         1 PYN       0.090100
      8 C7          -2.8950     0.1440     3.6590 ca         1 PYN      -0.155000
      9 C8          -3.5780     0.1660     2.4890 ca         1 PYN      -0.082500
     10 C9          -3.3770     0.1330    -2.4450 ca         1 PYN      -0.082500
     11 C10         -2.6180     0.0910    -3.5720 ca         1 PYN      -0.155000
     12 C11         -1.1940     0.0320    -3.4660 ca         1 PYN       0.090100
     13 C12         -0.6010     0.0300    -2.2290 ca         1 PYN      -0.239800
     14 N           -0.7380     0.0610     0.1350 nb         1 PYN      -0.675000
     15 N13         -0.8970     0.0700     4.9450 ns         1 PYN      -0.475100
     16 C14          0.4190     0.0510     5.3030 c          1 PYN       0.675100
     17 C15          0.6310     0.0860     6.7990 c3         1 PYN      -0.164400
     18 C16          2.0560    -0.2580     7.2060 c3         1 PYN       0.180300
     19 O14          1.3330     0.0230     4.5010 o          1 PYN      -0.573100
     20 N1          -0.3530    -0.0120    -4.5760 ns         1 PYN      -0.475100
     21 C17         -0.6450    -0.1860    -5.8960 c          1 PYN       0.675100
     22 C18          0.5850    -0.3250    -6.7650 c3         1 PYN      -0.164400
     23 C19          0.3280     0.0610    -8.2140 c3         1 PYN       0.180300
     24 O1          -1.7760    -0.2540    -6.3390 o          1 PYN      -0.573100
     25 C21          3.5040    -0.7900     9.0650 c5         1 PYN       0.156550
     26 N22          2.1920    -0.3350     8.6420 n3         1 PYN      -0.721600
     27 C23          2.0030     0.9280     9.3380 c5         1 PYN       0.156550
     28 C24          3.5080    -0.5300    10.5700 c5         1 PYN      -0.079650
     29 C25          2.5450     0.6620    10.7460 c5         1 PYN      -0.079650
     30 C26          1.1980     0.0020   -10.4640 c5         1 PYN       0.156550
     31 N27          1.4630    -0.2360    -9.0560 n3         1 PYN      -0.721600
     32 C28          2.6580     0.5430    -8.7710 c5         1 PYN       0.156550
     33 C29          2.5730    -0.1180   -11.1130 c5         1 PYN      -0.079650
     34 C30          3.5450     0.3400   -10.0060 c5         1 PYN      -0.079650
     35 H21         -4.6210     0.1910    -0.0230 ha         1 PYN       0.136000
     36 H51          0.3080     0.0310     2.4680 ha         1 PYN       0.165000
     37 H71         -3.4340     0.1660     4.5980 ha         1 PYN       0.148000
     38 H81         -4.6600     0.2030     2.4920 ha         1 PYN       0.134000
     39 H91         -4.4560     0.1760    -2.5300 ha         1 PYN       0.134000
     40 H101        -3.0930     0.1060    -4.5380 ha         1 PYN       0.148000
     41 H121         0.4780    -0.0110    -2.1340 ha         1 PYN       0.165000
     42 HN1         -1.5570     0.0850     5.7070 hn         1 PYN       0.317000
     43 H151         0.3620     1.0900     7.1440 hc         1 PYN       0.067200
     44 H152        -0.0680    -0.5980     7.2890 hc         1 PYN       0.067200
     45 H161         2.3230    -1.2320     6.7870 h1         1 PYN       0.047950
     46 H162         2.7560     0.4760     6.7740 h1         1 PYN       0.047950
     47 HN11         0.6310     0.0220    -4.3520 hn         1 PYN       0.317000
     48 H181         1.4070     0.2600    -6.3460 hc         1 PYN       0.067200
     49 H182         0.9020    -1.3730    -6.7210 hc         1 PYN       0.067200
     50 H191        -0.5290    -0.5010    -8.5880 h1         1 PYN       0.047950
     51 H192         0.0540     1.1290    -8.2680 h1         1 PYN       0.047950
     52 H212         4.3090    -0.2120     8.5790 h1         1 PYN       0.035825
     53 H231         2.5730     1.7400     8.8540 h1         1 PYN       0.035825
     54 H232         0.9540     1.2300     9.3430 h1         1 PYN       0.035825
     55 H241         3.1430    -1.4040    11.1110 hc         1 PYN       0.047325
     56 H242         4.5110    -0.3180    10.9380 hc         1 PYN       0.047325
     57 H251         1.7370     0.4130    11.4340 hc         1 PYN       0.047325
     58 H252         3.0430     1.5440    11.1460 hc         1 PYN       0.047325
     59 H261         0.4690    -0.7130   -10.8520 h1         1 PYN       0.035825
     60 H262         0.7870     1.0130   -10.6330 h1         1 PYN       0.035825
     61 H281         2.4180     1.6120    -8.6450 h1         1 PYN       0.035825
     62 H282         3.1420     0.2120    -7.8510 h1         1 PYN       0.035825
     63 H291         2.7720    -1.1520   -11.3970 hc         1 PYN       0.047325
     64 H292         2.6470     0.4880   -12.0150 hc         1 PYN       0.047325
     65 H301         4.3100    -0.4140    -9.8220 hc         1 PYN       0.047325
     66 H302         4.0640     1.2630   -10.2670 hc         1 PYN       0.047325
     67 H211         3.6570    -1.8400     8.8070 h1         1 PYN       0.035825
@<TRIPOS>BOND
     1     1     2 ar  
     2     1     3 ar  
     3     1    10 ar  
     4     2    13 ar  
     5     2    14 ar  
     6     3     4 ar  
     7     3    35 1   
     8     4     5 ar  
     9     4     9 ar  
    10     5     6 ar  
    11     5    14 ar  
    12     6     7 ar  
    13     6    36 1   
    14     7     8 ar  
    15     7    15 1   
    16     8     9 ar  
    17     8    37 1   
    18     9    38 1   
    19    10    11 ar  
    20    10    39 1   
    21    11    12 ar  
    22    11    40 1   
    23    12    13 ar  
    24    12    20 1   
    25    13    41 1   
    26    15    16 1   
    27    15    42 1   
    28    16    17 1   
    29    16    19 2   
    30    17    18 1   
    31    17    43 1   
    32    17    44 1   
    33    18    26 1   
    34    18    45 1   
    35    18    46 1   
    36    20    21 1   
    37    20    47 1   
    38    21    22 1   
    39    21    24 2   
    40    22    23 1   
    41    22    48 1   
    42    22    49 1   
    43    23    31 1   
    44    23    50 1   
    45    23    51 1   
    46    25    26 1   
    47    25    28 1   
    48    25    52 1   
    49    25    67 1   
    50    26    27 1   
    51    27    29 1   
    52    27    53 1   
    53    27    54 1   
    54    28    29 1   
    55    28    55 1   
    56    28    56 1   
    57    29    57 1   
    58    29    58 1   
    59    30    31 1   
    60    30    33 1   
    61    30    59 1   
    62    30    60 1   
    63    31    32 1   
    64    32    34 1   
    65    32    61 1   
    66    32    62 1   
    67    33    34 1   
    68    33    63 1   
    69    33    64 1   
    70    34    65 1   
    71    34    66 1   
@<TRIPOS>SUBSTRUCTURE
     1 PYN         1 TEMP              0 ****  ****    0 ROOT
