@<TRIPOS>MOLECULE
PYN
   67    71     1     0     0
SMALL
No Charge or Current Charge


@<TRIPOS>ATOM
      1 C           -2.7160    -0.5330    -1.1880 ca         1 PYN      -0.118000
      2 C1          -1.3120    -0.3640    -1.1750 ca         1 PYN       0.328500
      3 C2          -3.4290    -0.4270     0.0170 ca         1 PYN      -0.025000
      4 C3          -2.7160    -0.1550     1.1950 ca         1 PYN      -0.118000
      5 C4          -1.3120     0.0030     1.1320 ca         1 PYN       0.328500
      6 C5          -0.6080     0.2750     2.3190 ca         1 PYN      -0.156500
      7 C6          -1.2750     0.3940     3.5580 ca         1 PYN      -0.002500
      8 C7          -2.6710     0.2280     3.5960 ca         1 PYN      -0.137000
      9 C8          -3.3920    -0.0430     2.4230 ca         1 PYN      -0.064500
     10 C9          -3.3900    -0.8030    -2.3920 ca         1 PYN      -0.064500
     11 C10         -2.6720    -0.9080    -3.5930 ca         1 PYN      -0.137000
     12 C11         -1.2700    -0.7480    -3.6010 ca         1 PYN      -0.002500
     13 C12         -0.6110    -0.4730    -2.3880 ca         1 PYN      -0.156500
     14 N           -0.6350    -0.1020    -0.0340 nb         1 PYN      -0.675000
     15 N13         -0.6130     0.6640     4.7880 ns         1 PYN      -0.149000
     16 C14          0.7080     0.9660     5.0930 c          1 PYN       0.608100
     17 C15          0.9770     1.1750     6.5820 c3         1 PYN      -0.164400
     18 C16          1.7620    -0.0180     7.1540 c3         1 PYN       0.180300
     19 O14          1.5980     1.0960     4.2610 o          1 PYN      -0.573100
     20 N1          -0.4750    -0.8360    -4.7780 ns         1 PYN      -0.149000
     21 C17         -0.7770    -1.1860    -6.0880 c          1 PYN       0.608100
     22 C18          0.4130    -1.1280    -7.0450 c3         1 PYN      -0.164400
     23 C19          0.2810     0.0800    -7.9890 c3         1 PYN       0.180300
     24 O1          -1.8840    -1.5480    -6.4690 o          1 PYN      -0.573100
     25 C21          2.5980    -1.1330     9.2200 c5         1 PYN       0.156550
     26 N22          1.9430     0.0470     8.6210 n3         1 PYN      -0.721600
     27 C23          2.7650     1.1670     9.1290 c5         1 PYN       0.156550
     28 C24          2.6800    -0.7100    10.7090 c5         1 PYN      -0.079650
     29 C25          2.8540     0.8400    10.6450 c5         1 PYN      -0.079650
     30 C26          1.1930     1.2360    -9.9990 c5         1 PYN       0.156550
     31 N27          1.3540     0.1560    -9.0050 n3         1 PYN      -0.721600
     32 C28          2.7250     0.3870    -8.4950 c5         1 PYN       0.156550
     33 C29          2.4810     1.0640   -10.8430 c5         1 PYN      -0.079650
     34 C30          3.5350     0.5560    -9.8090 c5         1 PYN      -0.079650
     35 H21         -4.5100    -0.5530     0.0360 ha         1 PYN       0.118000
     36 H51          0.4680     0.3850     2.2490 ha         1 PYN       0.147000
     37 H71         -3.2050     0.3120     4.5400 ha         1 PYN       0.130000
     38 H81         -4.4720    -0.1660     2.4700 ha         1 PYN       0.116000
     39 H91         -4.4710    -0.9290    -2.3990 ha         1 PYN       0.116000
     40 H101        -3.2260    -1.1090    -4.5050 ha         1 PYN       0.130000
     41 H121         0.4680    -0.3430    -2.3790 ha         1 PYN       0.147000
     42 HN1         -1.2220     0.6220     5.5950 hn         1 PYN       0.150500
     43 H151         1.5740     2.0860     6.7050 hc         1 PYN       0.067200
     44 H152         0.0330     1.2650     7.1310 hc         1 PYN       0.067200
     45 H161         1.2170    -0.9380     6.9010 h1         1 PYN       0.047950
     46 H162         2.7400    -0.0770     6.6550 h1         1 PYN       0.047950
     47 HN11         0.4960    -0.5900    -4.6310 hn         1 PYN       0.150500
     48 H181         1.3460    -1.0390    -6.4770 hc         1 PYN       0.067200
     49 H182         0.4260    -2.0400    -7.6520 hc         1 PYN       0.067200
     50 H191        -0.6910     0.0110    -8.4980 h1         1 PYN       0.047950
     51 H192         0.2640     1.0010    -7.3890 h1         1 PYN       0.047950
     52 H212         3.6000    -1.2940     8.7960 h1         1 PYN       0.035825
     53 H231         3.7630     1.1680     8.6680 h1         1 PYN       0.035825
     54 H232         2.3060     2.1490     8.9520 h1         1 PYN       0.035825
     55 H241         1.7590    -0.9760    11.2410 hc         1 PYN       0.047325
     56 H242         3.5080    -1.2060    11.2280 hc         1 PYN       0.047325
     57 H251         2.0570     1.3440    11.2030 hc         1 PYN       0.047325
     58 H252         3.8070     1.1730    11.0720 hc         1 PYN       0.047325
     59 H261         0.2840     1.1210   -10.6050 h1         1 PYN       0.035825
     60 H262         1.1620     2.2240    -9.5160 h1         1 PYN       0.035825
     61 H281         2.7720     1.3000    -7.8840 h1         1 PYN       0.035825
     62 H282         3.1020    -0.4490    -7.8910 h1         1 PYN       0.035825
     63 H291         2.3290     0.3250   -11.6380 hc         1 PYN       0.047325
     64 H292         2.7810     2.0010   -11.3250 hc         1 PYN       0.047325
     65 H301         3.9660    -0.3990   -10.1310 hc         1 PYN       0.047325
     66 H302         4.3670     1.2580    -9.6800 hc         1 PYN       0.047325
     67 H211         2.0150    -2.0540     9.0840 h1         1 PYN       0.035825
@<TRIPOS>BOND
     1     1     2 ar  
     2     1     3 ar  
     3     1    10 ar  
     4     2    13 ar  
     5     2    14 ar  
     6     3     4 ar  
     7     3    35 1   
     8     4     5 ar  
     9     4     9 ar  
    10     5     6 ar  
    11     5    14 ar  
    12     6     7 ar  
    13     6    36 1   
    14     7     8 ar  
    15     7    15 1   
    16     8     9 ar  
    17     8    37 1   
    18     9    38 1   
    19    10    11 ar  
    20    10    39 1   
    21    11    12 ar  
    22    11    40 1   
    23    12    13 ar  
    24    12    20 1   
    25    13    41 1   
    26    15    16 1   
    27    15    42 1   
    28    16    17 1   
    29    16    19 2   
    30    17    18 1   
    31    17    43 1   
    32    17    44 1   
    33    18    26 1   
    34    18    45 1   
    35    18    46 1   
    36    20    21 1   
    37    20    47 1   
    38    21    22 1   
    39    21    24 2   
    40    22    23 1   
    41    22    48 1   
    42    22    49 1   
    43    23    31 1   
    44    23    50 1   
    45    23    51 1   
    46    25    26 1   
    47    25    28 1   
    48    25    52 1   
    49    25    67 1   
    50    26    27 1   
    51    27    29 1   
    52    27    53 1   
    53    27    54 1   
    54    28    29 1   
    55    28    55 1   
    56    28    56 1   
    57    29    57 1   
    58    29    58 1   
    59    30    31 1   
    60    30    33 1   
    61    30    59 1   
    62    30    60 1   
    63    31    32 1   
    64    32    34 1   
    65    32    61 1   
    66    32    62 1   
    67    33    34 1   
    68    33    63 1   
    69    33    64 1   
    70    34    65 1   
    71    34    66 1   
@<TRIPOS>SUBSTRUCTURE
     1 PYN         1 TEMP              0 ****  ****    0 ROOT
