@<TRIPOS>MOLECULE
PYQ
   24    26     1     0     0
SMALL
No Charge or Current Charge


@<TRIPOS>ATOM
      1 C1         100.9430    18.2860    10.4150 ca         1 PYQ      -0.075000
      2 C2         100.2050    17.1750    10.8700 ca         1 PYQ      -0.113300
      3 C3          99.9220    16.1750     9.9480 ca         1 PYQ      -0.035000
      4 C5         100.3190    16.1960     8.6410 ca         1 PYQ      -0.125300
      5 C6          99.8350    14.9540     7.8990 c5         1 PYQ      -0.037100
      6 C7          98.9810    14.1840     9.0120 c5         1 PYQ       0.104000
      7 N8          99.2410    15.0020    10.2210 n          1 PYQ      -0.220400
      8 C9          98.7680    14.6870    11.5040 c          1 PYQ       0.570000
      9 O10         97.9710    13.7780    11.7070 o          1 PYQ      -0.552000
     10 C11         99.3330    15.5500    12.6590 c6         1 PYQ      -0.154400
     11 C12         99.6360    17.0370    12.2850 c6         1 PYQ      -0.017100
     12 C13        101.0610    17.2890     8.1640 ca         1 PYQ      -0.066000
     13 C14        101.3730    18.3370     9.0650 ca         1 PYQ      -0.136000
     14 H11        101.1760    19.1050    11.0930 ha         1 PYQ       0.115000
     15 H61         99.2250    15.2020     7.0230 hc         1 PYQ       0.061700
     16 H62        100.6750    14.3420     7.5500 hc         1 PYQ       0.061700
     17 H71         97.9100    14.1780     8.7680 h1         1 PYQ       0.061700
     18 H72         99.3170    13.1480     9.1450 h1         1 PYQ       0.061700
     19 H111        98.7150    15.4440    13.5590 hc         1 PYQ       0.074700
     20 H112       100.3100    15.1020    12.8820 hc         1 PYQ       0.074700
     21 H121       100.3250    17.4750    13.0200 hc         1 PYQ       0.057700
     22 H122        98.7070    17.6200    12.3470 hc         1 PYQ       0.057700
     23 H131       101.3860    17.3310     7.1270 ha         1 PYQ       0.117000
     24 H141       101.9440    19.1940     8.7140 ha         1 PYQ       0.116000
@<TRIPOS>BOND
     1     1     2 ar  
     2     1    13 ar  
     3     1    14 1   
     4     2     3 ar  
     5     2    11 1   
     6     3     4 ar  
     7     3     7 1   
     8     4     5 1   
     9     4    12 ar  
    10     5     6 1   
    11     5    15 1   
    12     5    16 1   
    13     6     7 1   
    14     6    17 1   
    15     6    18 1   
    16     7     8 1   
    17     8     9 2   
    18     8    10 1   
    19    10    11 1   
    20    10    19 1   
    21    10    20 1   
    22    11    21 1   
    23    11    22 1   
    24    12    13 ar  
    25    12    23 1   
    26    13    24 1   
@<TRIPOS>SUBSTRUCTURE
     1 PYQ         1 TEMP              0 ****  ****    0 ROOT
