@<TRIPOS>MOLECULE
PYQ
   24    26     1     0     0
SMALL
abcg2


@<TRIPOS>ATOM
      1 C1         100.9490    18.2620    10.4090 ca         1 PYQ      -0.075000
      2 C2         100.1880    17.1900    10.8730 ca         1 PYQ      -0.113300
      3 C3          99.9150    16.1900     9.9560 ca         1 PYQ      -0.035000
      4 C5         100.3210    16.2050     8.6310 ca         1 PYQ      -0.125300
      5 C6          99.8280    14.9480     7.9490 c5         1 PYQ      -0.037100
      6 C7          98.9160    14.2740     9.0110 c5         1 PYQ       0.104000
      7 N8          99.1630    15.0450    10.2460 n          1 PYQ      -0.220400
      8 C9          98.8410    14.6670    11.5030 c          1 PYQ       0.570000
      9 O10         98.1890    13.6500    11.7400 o          1 PYQ      -0.552000
     10 C11         99.4180    15.5500    12.6040 c6         1 PYQ      -0.154400
     11 C12         99.5790    17.0340    12.2400 c6         1 PYQ      -0.017100
     12 C13        101.0720    17.2810     8.1830 ca         1 PYQ      -0.066000
     13 C14        101.3870    18.3050     9.0830 ca         1 PYQ      -0.136000
     14 H11        101.1970    19.0720    11.0850 ha         1 PYQ       0.115000
     15 H61         99.2770    15.1620     7.0330 hc         1 PYQ       0.061700
     16 H62        100.6640    14.2980     7.6810 hc         1 PYQ       0.061700
     17 H71         97.8620    14.3440     8.7420 h1         1 PYQ       0.061700
     18 H72         99.1590    13.2270     9.1790 h1         1 PYQ       0.061700
     19 H111        98.7930    15.4250    13.4860 hc         1 PYQ       0.074700
     20 H112       100.3990    15.1220    12.8390 hc         1 PYQ       0.074700
     21 H121       100.1780    17.5390    12.9980 hc         1 PYQ       0.057700
     22 H122        98.5940    17.5150    12.2450 hc         1 PYQ       0.057700
     23 H131       101.4120    17.3340     7.1560 ha         1 PYQ       0.117000
     24 H141       101.9750    19.1490     8.7460 ha         1 PYQ       0.116000
@<TRIPOS>BOND
     1     1     2 ar  
     2     1    13 ar  
     3     1    14 1   
     4     2     3 ar  
     5     2    11 1   
     6     3     4 ar  
     7     3     7 1   
     8     4     5 1   
     9     4    12 ar  
    10     5     6 1   
    11     5    15 1   
    12     5    16 1   
    13     6     7 1   
    14     6    17 1   
    15     6    18 1   
    16     7     8 1   
    17     8     9 2   
    18     8    10 1   
    19    10    11 1   
    20    10    19 1   
    21    10    20 1   
    22    11    21 1   
    23    11    22 1   
    24    12    13 ar  
    25    12    23 1   
    26    13    24 1   
@<TRIPOS>SUBSTRUCTURE
     1 PYQ         1 TEMP              0 ****  ****    0 ROOT
