@<TRIPOS>MOLECULE
PYR
    9     8     1     0     0
SMALL
No Charge or Current Charge


@<TRIPOS>ATOM
      1 C1          35.5800     3.0660     6.6580 c          1 PYR       0.645000
      2 O1          34.7250     3.8110     6.1800 o          1 PYR      -0.702500
      3 O2          36.3580     2.4180     5.9610 o          1 PYR      -0.702500
      4 C2          35.6830     2.9360     8.2750 c          1 PYR       0.425100
      5 O3          34.9400     3.5530     9.0440 o          1 PYR      -0.572100
      6 C3          36.7640     1.9960     8.8390 c3         1 PYR      -0.195100
      7 H31         36.7720     1.9610     9.9350 hc         1 PYR       0.034367
      8 H32         36.6310     0.9980     8.4060 hc         1 PYR       0.034367
      9 H33         37.7400     2.2920     8.4390 hc         1 PYR       0.034367
@<TRIPOS>BOND
     1     1     2 1   
     2     1     3 1   
     3     1     4 1   
     4     4     5 2   
     5     4     6 1   
     6     6     7 1   
     7     6     8 1   
     8     6     9 1   
@<TRIPOS>SUBSTRUCTURE
     1 PYR         1 TEMP              0 ****  ****    0 ROOT
