@<TRIPOS>MOLECULE
PYR
    9     8     1     0     0
SMALL
bcc


@<TRIPOS>ATOM
      1 C1          35.5860     3.0570     6.6960 c          1 PYR       0.855600
      2 O1          34.6050     3.6860     6.2760 o          1 PYR      -0.807800
      3 O2          36.4930     2.4970     6.0560 o          1 PYR      -0.807800
      4 C2          35.7150     2.9510     8.2450 c          1 PYR       0.425100
      5 O3          35.0240     3.6240     8.9750 o          1 PYR      -0.572100
      6 C3          36.7410     1.9910     8.7810 c3         1 PYR      -0.195100
      7 H31         36.7210     1.9570     9.8690 hc         1 PYR       0.034367
      8 H32         36.5690     0.9880     8.3880 hc         1 PYR       0.034367
      9 H33         37.7400     2.2800     8.4510 hc         1 PYR       0.034367
@<TRIPOS>BOND
     1     1     2 1   
     2     1     3 1   
     3     1     4 1   
     4     4     5 2   
     5     4     6 1   
     6     6     7 1   
     7     6     8 1   
     8     6     9 1   
@<TRIPOS>SUBSTRUCTURE
     1 PYR         1 TEMP              0 ****  ****    0 ROOT
