@<TRIPOS>MOLECULE
PYS
   12    12     1     0     0
SMALL
No Charge or Current Charge


@<TRIPOS>ATOM
      1 N1          -1.0360     0.2940    -0.0410 nb         1 PYS      -0.690000
      2 C2           0.2080     0.2170     0.4740 ca         1 PYS       0.480300
      3 C3           1.3530     0.0050    -0.3110 ca         1 PYS      -0.147000
      4 C4           1.2130    -0.1360    -1.7010 ca         1 PYS      -0.062000
      5 C5          -0.0800    -0.0570    -2.2410 ca         1 PYS      -0.170000
      6 C6          -1.1710     0.1580    -1.3800 ca         1 PYS       0.350900
      7 S2           0.3020     0.4040     2.2310 sh         1 PYS      -0.397100
      8 H3           2.3310    -0.0480     0.1570 ha         1 PYS       0.135000
      9 H4           2.0800    -0.3010    -2.3390 ha         1 PYS       0.121000
     10 H5          -0.2440    -0.1590    -3.3100 ha         1 PYS       0.126000
     11 H6          -2.1850     0.2230    -1.7750 h4         1 PYS       0.020100
     12 HS2         -1.0340     0.5640     2.3680 hs         1 PYS       0.230800
@<TRIPOS>BOND
     1     1     2 ar  
     2     1     6 ar  
     3     2     3 ar  
     4     2     7 1   
     5     3     4 ar  
     6     3     8 1   
     7     4     5 ar  
     8     4     9 1   
     9     5     6 ar  
    10     5    10 1   
    11     6    11 1   
    12     7    12 1   
@<TRIPOS>SUBSTRUCTURE
     1 PYS         1 TEMP              0 ****  ****    0 ROOT
