@<TRIPOS>MOLECULE
PYS
   12    12     1     0     0
SMALL
bcc


@<TRIPOS>ATOM
      1 N1          -1.0420     0.2920    -0.0850 nb         1 PYS      -0.690000
      2 C2           0.1680     0.2210     0.4440 ca         1 PYS       0.545600
      3 C3           1.3230     0.0100    -0.3080 ca         1 PYS      -0.230300
      4 C4           1.1880    -0.1310    -1.6760 ca         1 PYS      -0.080000
      5 C5          -0.0790    -0.0570    -2.2450 ca         1 PYS      -0.253300
      6 C6          -1.1560     0.1540    -1.4030 ca         1 PYS       0.416200
      7 S2           0.3350     0.4030     2.1920 sh         1 PYS      -0.397100
      8 H3           2.2950    -0.0430     0.1660 ha         1 PYS       0.153000
      9 H4           2.0610    -0.2980    -2.2930 ha         1 PYS       0.139000
     10 H5          -0.2260    -0.1610    -3.3110 ha         1 PYS       0.144000
     11 H6          -2.1620     0.2180    -1.8020 h4         1 PYS       0.020100
     12 HS2         -0.9680     0.5560     2.4510 hs         1 PYS       0.230800
@<TRIPOS>BOND
     1     1     2 ar  
     2     1     6 ar  
     3     2     3 ar  
     4     2     7 1   
     5     3     4 ar  
     6     3     8 1   
     7     4     5 ar  
     8     4     9 1   
     9     5     6 ar  
    10     5    10 1   
    11     6    11 1   
    12     7    12 1   
@<TRIPOS>SUBSTRUCTURE
     1 PYS         1 TEMP              0 ****  ****    0 ROOT
