@<TRIPOS>MOLECULE
PYT
   12    11     1     0     0
SMALL
bcc


@<TRIPOS>ATOM
      1 N            0.9250    -0.2290     1.5630 nv         1 PYT      -0.824600
      2 CA          -0.1830    -0.0660     0.7660 ce         1 PYT       0.056800
      3 CB          -1.4410    -0.0020     1.2260 c2         1 PYT      -0.315000
      4 C            0.1670    -0.0020    -0.7020 c          1 PYT       0.668300
      5 NT          -0.8390    -0.0310    -1.5810 nt         1 PYT      -0.662000
      6 O            1.3410     0.0700    -1.0420 o          1 PYT      -0.614100
      7 HN1          0.8110     0.0180     2.5320 hn         1 PYT       0.407300
      8 HN2          1.7930     0.0990     1.1710 hn         1 PYT       0.407300
      9 HC1         -2.3040     0.0790     0.5840 ha         1 PYT       0.119000
     10 HC2         -1.6430    -0.0410     2.2890 ha         1 PYT       0.119000
     11 HT1         -0.6400     0.0470    -2.5650 hn         1 PYT       0.319000
     12 HT2         -1.8050    -0.0850    -1.3140 hn         1 PYT       0.319000
@<TRIPOS>BOND
     1     1     2 1   
     2     1     7 1   
     3     1     8 1   
     4     2     3 2   
     5     2     4 1   
     6     3     9 1   
     7     3    10 1   
     8     4     5 1   
     9     4     6 2   
    10     5    11 1   
    11     5    12 1   
@<TRIPOS>SUBSTRUCTURE
     1 PYT         1 TEMP              0 ****  ****    0 ROOT
