@<TRIPOS>MOLECULE
PYT
   12    11     1     0     0
SMALL
No Charge or Current Charge


@<TRIPOS>ATOM
      1 N            0.9080    -0.0800     1.6360 nv         1 PYT      -0.935000
      2 CA          -0.1680    -0.0460     0.7440 ce         1 PYT       0.056800
      3 CB          -1.4240    -0.0410     1.2350 c2         1 PYT      -0.415000
      4 C            0.1770    -0.0130    -0.7620 c          1 PYT       0.601300
      5 NT          -0.8570     0.0150    -1.6350 nt         1 PYT      -0.595000
      6 O            1.3220    -0.0100    -1.1950 o          1 PYT      -0.614100
      7 HN1          0.7590     0.0440     2.6360 hn         1 PYT       0.462500
      8 HN2          1.8600     0.0180     1.2790 hn         1 PYT       0.462500
      9 HC1         -2.3070    -0.0150     0.5970 ha         1 PYT       0.169000
     10 HC2         -1.6180    -0.0660     2.3080 ha         1 PYT       0.169000
     11 HT1         -0.6670     0.0370    -2.6250 hn         1 PYT       0.319000
     12 HT2         -1.8040     0.0130    -1.2920 hn         1 PYT       0.319000
@<TRIPOS>BOND
     1     1     2 1   
     2     1     7 1   
     3     1     8 1   
     4     2     3 2   
     5     2     4 1   
     6     3     9 1   
     7     3    10 1   
     8     4     5 1   
     9     4     6 2   
    10     5    11 1   
    11     5    12 1   
@<TRIPOS>SUBSTRUCTURE
     1 PYT         1 TEMP              0 ****  ****    0 ROOT
