@<TRIPOS>MOLECULE
PYU
   25    26     1     0     0
SMALL
bcc


@<TRIPOS>ATOM
      1 N1          -2.0210     0.1240     0.0070 n          1 PYU      -0.064200
      2 C4           0.8570    -0.8240     0.2660 ca         1 PYU       0.273100
      3 C5           2.6560     1.2330    -0.3070 ca         1 PYU      -0.328000
      4 C6           2.1720    -0.9230     0.6880 ca         1 PYU      -0.328000
      5 C7          -3.3200    -0.0940    -0.4130 cc         1 PYU      -0.125300
      6 C8          -1.9730     0.0270     1.3840 cc         1 PYU      -0.125300
      7 C10         -4.0770    -0.3500     0.6840 cd         1 PYU      -0.189500
      8 C11         -3.2230    -0.2590     1.8290 cd         1 PYU      -0.189500
      9 C1           0.3940     0.3260    -0.4050 ca         1 PYU      -0.353600
     10 C9           3.0600     0.1170     0.4170 ca         1 PYU       0.253100
     11 C3           1.3460     1.3170    -0.7500 ca         1 PYU       0.273100
     12 C2          -0.9900     0.5180    -0.8380 c          1 PYU       0.626500
     13 O1          -1.2680     1.0690    -1.8930 o          1 PYU      -0.584100
     14 O4           4.3360     0.0720     0.8110 oh         1 PYU      -0.478100
     15 O2           1.0210     2.3860    -1.4800 oh         1 PYU      -0.482100
     16 H5           3.3630     2.0130    -0.5550 ha         1 PYU       0.156000
     17 H6           2.5140    -1.8190     1.1950 ha         1 PYU       0.156000
     18 H7          -3.5800    -0.0730    -1.4580 h4         1 PYU       0.173000
     19 H8          -1.0650     0.2170     1.9310 h4         1 PYU       0.173000
     20 H10         -5.1310    -0.5780     0.6820 ha         1 PYU       0.151500
     21 H11         -3.5100    -0.3790     2.8610 ha         1 PYU       0.151500
     22 HO4          4.5200    -0.7440     1.2900 ho         1 PYU       0.434000
     23 HO2          0.1530     2.2430    -1.8940 ho         1 PYU       0.453500
     24 HO3          0.4090    -2.5490     0.9340 ho         1 PYU       0.453500
     25 O3          -0.0030    -1.8320     0.4380 oh         1 PYU      -0.482100
@<TRIPOS>BOND
     1     1     5 1   
     2     1     6 1   
     3     1    12 1   
     4     2     4 ar  
     5     2     9 ar  
     6     2    25 1   
     7     3    10 ar  
     8     3    11 ar  
     9     3    16 1   
    10     4    10 ar  
    11     4    17 1   
    12     5     7 2   
    13     5    18 1   
    14     6     8 2   
    15     6    19 1   
    16     7     8 1   
    17     7    20 1   
    18     8    21 1   
    19     9    11 ar  
    20     9    12 1   
    21    10    14 1   
    22    11    15 1   
    23    12    13 2   
    24    14    22 1   
    25    15    23 1   
    26    24    25 1   
@<TRIPOS>SUBSTRUCTURE
     1 PYU         1 TEMP              0 ****  ****    0 ROOT
