@<TRIPOS>MOLECULE
PYU
   25    26     1     0     0
SMALL
No Charge or Current Charge


@<TRIPOS>ATOM
      1 N1          -2.0670     0.1280    -0.0180 n          1 PYU       0.037200
      2 C4           0.8950    -0.8310     0.2410 ca         1 PYU       0.273100
      3 C5           2.6630     1.2680    -0.2790 ca         1 PYU      -0.310000
      4 C6           2.2220    -0.9050     0.6830 ca         1 PYU      -0.310000
      5 C7          -3.4000    -0.0060    -0.3780 cc         1 PYU      -0.158000
      6 C8          -2.0180    -0.0140     1.3630 cc         1 PYU      -0.158000
      7 C10         -4.1680    -0.2580     0.7350 cd         1 PYU      -0.171500
      8 C11         -3.2770    -0.2620     1.8560 cd         1 PYU      -0.171500
      9 C1           0.4300     0.3130    -0.4330 ca         1 PYU      -0.353600
     10 C9           3.0990     0.1530     0.4350 ca         1 PYU       0.253100
     11 C3           1.3430     1.3390    -0.7270 ca         1 PYU       0.273100
     12 C2          -0.9940     0.4400    -0.9020 c          1 PYU       0.626500
     13 O1          -1.2010     0.8200    -2.0530 o          1 PYU      -0.584100
     14 O4           4.3870     0.0910     0.8590 oh         1 PYU      -0.517100
     15 O2           0.9610     2.4210    -1.4530 oh         1 PYU      -0.521100
     16 H5           3.3540     2.0770    -0.4960 ha         1 PYU       0.138000
     17 H6           2.5740    -1.7890     1.2080 ha         1 PYU       0.138000
     18 H7          -3.6550     0.0910    -1.4270 h4         1 PYU       0.155000
     19 H8          -1.0620     0.0960     1.8590 h4         1 PYU       0.155000
     20 H10         -5.2430    -0.4120     0.7560 ha         1 PYU       0.133500
     21 H11         -3.5440    -0.4160     2.8990 ha         1 PYU       0.133500
     22 HO4          4.5080    -0.7590     1.3310 ho         1 PYU       0.473000
     23 HO2          0.1290     2.1680    -1.9160 ho         1 PYU       0.492500
     24 HO3          0.6120    -2.6080     0.8630 ho         1 PYU       0.492500
     25 O3           0.0900    -1.9090     0.4190 oh         1 PYU      -0.521100
@<TRIPOS>BOND
     1     1     5 1   
     2     1     6 1   
     3     1    12 1   
     4     2     4 ar  
     5     2     9 ar  
     6     2    25 1   
     7     3    10 ar  
     8     3    11 ar  
     9     3    16 1   
    10     4    10 ar  
    11     4    17 1   
    12     5     7 2   
    13     5    18 1   
    14     6     8 2   
    15     6    19 1   
    16     7     8 1   
    17     7    20 1   
    18     8    21 1   
    19     9    11 ar  
    20     9    12 1   
    21    10    14 1   
    22    11    15 1   
    23    12    13 2   
    24    14    22 1   
    25    15    23 1   
    26    24    25 1   
@<TRIPOS>SUBSTRUCTURE
     1 PYU         1 TEMP              0 ****  ****    0 ROOT
