@<TRIPOS>MOLECULE
PYV
   35    37     1     0     0
SMALL
abcg2


@<TRIPOS>ATOM
      1 S           -1.2450    -2.0230     0.4090 sy         1 PYV       1.151600
      2 C1           2.7020     0.0020    -0.6270 ca         1 PYV       0.043100
      3 N1          -2.3720    -0.8260     0.4160 n7         1 PYV      -0.859300
      4 O1          -1.2440    -2.5980     1.7440 o          1 PYV      -0.527000
      5 C2           2.1240     0.3360     0.6290 ca         1 PYV      -0.039000
      6 N2          -4.9460    -0.1020    -0.8260 nb         1 PYV      -0.638000
      7 O2          -1.5330    -2.8730    -0.7320 o          1 PYV      -0.527000
      8 C3           0.9070    -0.3120     1.0070 ca         1 PYV       0.042000
      9 C4           0.3230    -1.2360     0.0920 ca         1 PYV      -0.286500
     10 C5           0.9160    -1.5170    -1.1080 ca         1 PYV       0.003000
     11 C6           2.1230    -0.9010    -1.4710 ca         1 PYV      -0.112000
     12 C7           0.3440     0.0080     2.2660 ca         1 PYV      -0.135000
     13 C8           0.9310     0.9250     3.0940 ca         1 PYV      -0.075000
     14 C9           2.1180     1.5690     2.7140 ca         1 PYV      -0.109000
     15 C10          2.7020     1.2750     1.5140 ca         1 PYV      -0.085000
     16 C11         -2.5340     0.0040    -0.7740 c3         1 PYV       0.156500
     17 C12         -3.8760     0.6820    -0.7250 ca         1 PYV       0.332300
     18 C13         -6.1440     0.4620    -0.7800 ca         1 PYV       0.339900
     19 C14         -6.3410     1.8300    -0.6340 ca         1 PYV      -0.158000
     20 C15         -5.2260     2.6440    -0.5320 ca         1 PYV      -0.073000
     21 C16         -3.9680     2.0580    -0.5760 ca         1 PYV      -0.157000
     22 HN1         -2.4000    -0.3130     1.2900 hn         1 PYV       0.484000
     23 H5           0.4670    -2.2130    -1.8010 ha         1 PYV       0.151000
     24 H6           2.5690    -1.1500    -2.4240 ha         1 PYV       0.138000
     25 H7          -0.5450    -0.4920     2.6170 ha         1 PYV       0.127000
     26 H8           0.4780     1.1480     4.0510 ha         1 PYV       0.122000
     27 H9           2.5780     2.2930     3.3730 ha         1 PYV       0.122000
     28 H10          3.6220     1.7750     1.2470 ha         1 PYV       0.129000
     29 H11         -1.7380     0.7490    -0.8650 h1         1 PYV       0.064200
     30 H11A        -2.4910    -0.6390    -1.6540 h1         1 PYV       0.064200
     31 H13         -6.9950    -0.2040    -0.8680 h4         1 PYV       0.024100
     32 H14         -7.3430     2.2360    -0.6040 ha         1 PYV       0.126000
     33 H15         -5.3300     3.7150    -0.4190 ha         1 PYV       0.121000
     34 H16         -3.0730     2.6610    -0.4950 ha         1 PYV       0.121000
     35 BR           4.3120     0.8050    -1.1880 br         1 PYV      -0.081100
@<TRIPOS>BOND
     1     1     3 1   
     2     1     4 2   
     3     1     7 2   
     4     1     9 1   
     5     2     5 ar  
     6     2    11 ar  
     7     2    35 1   
     8     3    16 1   
     9     3    22 1   
    10     5     8 ar  
    11     5    15 ar  
    12     6    17 ar  
    13     6    18 ar  
    14     8     9 ar  
    15     8    12 ar  
    16     9    10 ar  
    17    10    11 ar  
    18    10    23 1   
    19    11    24 1   
    20    12    13 ar  
    21    12    25 1   
    22    13    14 ar  
    23    13    26 1   
    24    14    15 ar  
    25    14    27 1   
    26    15    28 1   
    27    16    17 1   
    28    16    29 1   
    29    16    30 1   
    30    17    21 ar  
    31    18    19 ar  
    32    18    31 1   
    33    19    20 ar  
    34    19    32 1   
    35    20    21 ar  
    36    20    33 1   
    37    21    34 1   
@<TRIPOS>SUBSTRUCTURE
     1 PYV         1 TEMP              0 ****  ****    0 ROOT
