@<TRIPOS>MOLECULE
PYV
   35    37     1     0     0
SMALL
No Charge or Current Charge


@<TRIPOS>ATOM
      1 S           -0.9200    -1.9470    -0.1400 sy         1 PYV       1.151600
      2 C1           3.1010     0.3710    -0.1210 ca         1 PYV       0.043100
      3 N1          -2.0330    -0.7040    -0.1450 n7         1 PYV      -0.859300
      4 O1          -1.1150    -2.6590     1.1250 o          1 PYV      -0.527000
      5 C2           2.2440     0.5210     0.9970 ca         1 PYV      -0.039000
      6 N2          -5.2490     0.2810     0.4130 nb         1 PYV      -0.638000
      7 O2          -1.0370    -2.6120    -1.4400 o          1 PYV      -0.527000
      8 C3           0.9940    -0.1640     1.0290 ca         1 PYV       0.042000
      9 C4           0.6240    -1.0010    -0.0690 ca         1 PYV      -0.286500
     10 C5           1.4990    -1.1240    -1.1700 ca         1 PYV       0.003000
     11 C6           2.7210    -0.4450    -1.1920 ca         1 PYV      -0.112000
     12 C7           0.1540     0.0230     2.1560 ca         1 PYV      -0.135000
     13 C8           0.5400     0.8470     3.2230 ca         1 PYV      -0.075000
     14 C9           1.7730     1.5070     3.1880 ca         1 PYV      -0.109000
     15 C10          2.6190     1.3480     2.0830 ca         1 PYV      -0.085000
     16 C11         -3.4080    -1.0070    -0.6240 c3         1 PYV       0.156500
     17 C12         -4.3450     0.2120    -0.5970 ca         1 PYV       0.332300
     18 C13         -6.0790     1.3490     0.4540 ca         1 PYV       0.339900
     19 C14         -6.0470     2.3790    -0.5020 ca         1 PYV      -0.158000
     20 C15         -5.1150     2.3110    -1.5500 ca         1 PYV      -0.073000
     21 C16         -4.2510     1.2050    -1.5940 ca         1 PYV      -0.157000
     22 HN1         -1.5820    -0.0210    -0.7530 hn         1 PYV       0.484000
     23 H5           1.2450    -1.7540    -2.0220 ha         1 PYV       0.151000
     24 H6           3.3820    -0.5550    -2.0490 ha         1 PYV       0.138000
     25 H7          -0.8160    -0.4540     2.2330 ha         1 PYV       0.127000
     26 H8          -0.1200     0.9760     4.0780 ha         1 PYV       0.122000
     27 H9           2.0710     2.1470     4.0160 ha         1 PYV       0.122000
     28 H10          3.5660     1.8800     2.0900 ha         1 PYV       0.129000
     29 H11         -3.3850    -1.3880    -1.6540 h1         1 PYV       0.064200
     30 H11A        -3.8540    -1.7990    -0.0060 h1         1 PYV       0.064200
     31 H13         -6.7930     1.3780     1.2760 h4         1 PYV       0.024100
     32 H14         -6.7360     3.2150    -0.4240 ha         1 PYV       0.126000
     33 H15         -5.0650     3.0920    -2.3060 ha         1 PYV       0.121000
     34 H16         -3.5170     1.1140    -2.3900 ha         1 PYV       0.121000
     35 Br           4.8050     1.2550    -0.2540 br         1 PYV      -0.081100
@<TRIPOS>BOND
     1     1     3 1   
     2     1     4 2   
     3     1     7 2   
     4     1     9 1   
     5     2     5 ar  
     6     2    11 ar  
     7     2    35 1   
     8     3    16 1   
     9     3    22 1   
    10     5     8 ar  
    11     5    15 ar  
    12     6    17 ar  
    13     6    18 ar  
    14     8     9 ar  
    15     8    12 ar  
    16     9    10 ar  
    17    10    11 ar  
    18    10    23 1   
    19    11    24 1   
    20    12    13 ar  
    21    12    25 1   
    22    13    14 ar  
    23    13    26 1   
    24    14    15 ar  
    25    14    27 1   
    26    15    28 1   
    27    16    17 1   
    28    16    29 1   
    29    16    30 1   
    30    17    21 ar  
    31    18    19 ar  
    32    18    31 1   
    33    19    20 ar  
    34    19    32 1   
    35    20    21 ar  
    36    20    33 1   
    37    21    34 1   
@<TRIPOS>SUBSTRUCTURE
     1 PYV         1 TEMP              0 ****  ****    0 ROOT
