@<TRIPOS>MOLECULE
PYW
   71    73     1     0     0
SMALL
abcg2


@<TRIPOS>ATOM
      1 CAO         -2.4280     3.9210    -0.1870 ca         1 PYW      -0.077000
      2 CAK         -2.9030     5.2040    -0.4150 ca         1 PYW      -0.164000
      3 CAM         -2.1360     6.2770     0.0060 ca         1 PYW       0.329900
      4 NAT         -0.9670     6.1310     0.6220 nb         1 PYW      -0.669000
      5 CAQ         -0.5250     4.8980     0.8290 ca         1 PYW       0.353900
      6 CBF         -1.2030     3.7460     0.4450 ca         1 PYW      -0.110300
      7 CAS         -0.6550     2.3790     0.7440 c3         1 PYW      -0.029100
      8 CBL         -0.2660     1.5830    -0.5170 c3         1 PYW       0.140700
      9 NAV         -0.3470     0.1410    -0.3320 ns         1 PYW      -0.504900
     10 C           -0.0670    -0.5620     0.7760 c          1 PYW       0.618100
     11 O            0.4600    -0.1100     1.7760 o          1 PYW      -0.571100
     12 CBK          1.0240     2.0010    -1.2540 c3         1 PYW       0.173300
     13 OAJ          0.8930     3.3860    -1.4640 oh         1 PYW      -0.649000
     14 CBJ          2.4130     1.6960    -0.6430 c3         1 PYW      -0.131700
     15 CAD          2.6790     2.2530     0.7490 c3         1 PYW      -0.082100
     16 CBD          2.8310     0.2590    -0.8640 c          1 PYW       0.608100
     17 OAH          2.6670    -0.3510    -1.8880 o          1 PYW      -0.492000
     18 OAX          3.5120    -0.2530     0.1710 os         1 PYW      -0.320200
     19 CBE          4.0280    -1.5340     0.0470 ce         1 PYW      -0.011100
     20 CAZ          5.3550    -1.7010     0.1020 c2         1 PYW      -0.021400
     21 CAB          6.0350    -3.0340     0.1320 c3         1 PYW      -0.063900
     22 CAR          6.2760    -0.5160     0.1910 c3         1 PYW      -0.047200
     23 CAA          6.5700    -0.1440     1.6460 c3         1 PYW      -0.087100
     24 CBA          3.0250    -2.6130    -0.0760 c          1 PYW       0.622300
     25 OAE          3.2520    -3.7510    -0.4040 o          1 PYW      -0.481000
     26 OG1          1.8250    -2.1450     0.2280 os         1 PYW      -0.445100
     27 CB           0.6290    -2.8570    -0.0800 c3         1 PYW       0.186300
     28 CG2          0.4090    -2.9340    -1.5830 c3         1 PYW      -0.130100
     29 CA          -0.4340    -2.0610     0.7160 c3         1 PYW       0.027700
     30 N           -1.7490    -2.2860     0.1740 ns         1 PYW      -0.480900
     31 CBB         -2.8380    -1.7200     0.7010 c          1 PYW       0.512600
     32 OAF         -2.7900    -0.9450     1.6610 o          1 PYW      -0.633100
     33 CBH         -4.1250    -2.0590     0.0460 ca         1 PYW       0.162500
     34 NAU         -4.0850    -2.9110    -0.9760 nb         1 PYW      -0.647000
     35 CAN         -5.2000    -3.2310    -1.5970 ca         1 PYW       0.292900
     36 CAL         -6.4340    -2.7000    -1.2180 ca         1 PYW      -0.096000
     37 CAP         -6.4940    -1.8180    -0.1630 ca         1 PYW      -0.134000
     38 CBG         -5.3140    -1.4750     0.5030 ca         1 PYW       0.181100
     39 OAI         -5.3650    -0.6210     1.5210 oh         1 PYW      -0.532100
     40 HAO         -3.0130     3.0620    -0.4950 ha         1 PYW       0.112000
     41 HAK         -3.8530     5.3700    -0.9060 ha         1 PYW       0.119000
     42 HAM         -2.4780     7.2940    -0.1540 h4         1 PYW       0.015100
     43 HAQ          0.4330     4.8120     1.3330 h4         1 PYW       0.016100
     44 HAS1         0.1660     2.4620     1.4500 hc         1 PYW       0.073200
     45 HAS2        -1.4380     1.8100     1.2510 hc         1 PYW       0.073200
     46 HBL         -1.0530     1.7900    -1.2480 h1         1 PYW       0.048700
     47 HAV         -0.8220    -0.3480    -1.0730 hn         1 PYW       0.313500
     48 HBK          0.9910     1.4680    -2.2130 h1         1 PYW       0.044700
     49 HA          -0.3960    -2.4000     1.7540 h1         1 PYW       0.099700
     50 HAJ          1.5530     3.6600    -2.1090 ho         1 PYW       0.446000
     51 HBJ          3.0990     2.2220    -1.3260 hc         1 PYW       0.056700
     52 HAD1         2.1690     1.6920     1.5270 hc         1 PYW       0.053700
     53 HAD2         3.7460     2.2490     0.9710 hc         1 PYW       0.053700
     54 HAD3         2.3480     3.2900     0.7970 hc         1 PYW       0.053700
     55 HAB1         6.2580    -3.3660    -0.8840 hc         1 PYW       0.058700
     56 HAB2         6.9900    -2.9420     0.6510 hc         1 PYW       0.058700
     57 HAB3         5.4570    -3.8160     0.6150 hc         1 PYW       0.058700
     58 HAR1         7.2120    -0.7780    -0.3080 hc         1 PYW       0.052200
     59 HAR2         5.8740     0.3500    -0.3350 hc         1 PYW       0.052200
     60 HAA1         5.6680     0.1960     2.1530 hc         1 PYW       0.040700
     61 HAA2         6.9700    -0.9920     2.2030 hc         1 PYW       0.040700
     62 HAA3         7.3050     0.6590     1.6910 hc         1 PYW       0.040700
     63 HB           0.6820    -3.8700     0.3250 h1         1 PYW       0.068700
     64 HG21         1.2730    -3.3810    -2.0700 hc         1 PYW       0.057033
     65 HG22        -0.4320    -3.5860    -1.8170 hc         1 PYW       0.057033
     66 HG23         0.2340    -1.9620    -2.0400 hc         1 PYW       0.057033
     67 H           -1.9040    -2.9350    -0.5850 hn         1 PYW       0.355500
     68 HAN         -5.1250    -3.9260    -2.4230 h4         1 PYW       0.027100
     69 HAL         -7.3310    -2.9790    -1.7530 ha         1 PYW       0.129000
     70 HAP         -7.4350    -1.3870     0.1550 ha         1 PYW       0.141000
     71 HAI         -4.4480    -0.5080     1.8590 ho         1 PYW       0.524000
@<TRIPOS>BOND
     1     1     2 ar  
     2     1     6 ar  
     3     1    40 1   
     4     2     3 ar  
     5     2    41 1   
     6     3     4 ar  
     7     3    42 1   
     8     4     5 ar  
     9     5     6 ar  
    10     5    43 1   
    11     6     7 1   
    12     7     8 1   
    13     7    44 1   
    14     7    45 1   
    15     8     9 1   
    16     8    12 1   
    17     8    46 1   
    18     9    10 1   
    19     9    47 1   
    20    10    11 2   
    21    10    29 1   
    22    12    13 1   
    23    12    14 1   
    24    12    48 1   
    25    13    50 1   
    26    14    15 1   
    27    14    16 1   
    28    14    51 1   
    29    15    52 1   
    30    15    53 1   
    31    15    54 1   
    32    16    17 2   
    33    16    18 1   
    34    18    19 1   
    35    19    20 2   
    36    19    24 1   
    37    20    21 1   
    38    20    22 1   
    39    21    55 1   
    40    21    56 1   
    41    21    57 1   
    42    22    23 1   
    43    22    58 1   
    44    22    59 1   
    45    23    60 1   
    46    23    61 1   
    47    23    62 1   
    48    24    25 2   
    49    24    26 1   
    50    26    27 1   
    51    27    28 1   
    52    27    29 1   
    53    27    63 1   
    54    28    64 1   
    55    28    65 1   
    56    28    66 1   
    57    29    30 1   
    58    29    49 1   
    59    30    31 1   
    60    30    67 1   
    61    31    32 2   
    62    31    33 1   
    63    33    34 ar  
    64    33    38 ar  
    65    34    35 ar  
    66    35    36 ar  
    67    35    68 1   
    68    36    37 ar  
    69    36    69 1   
    70    37    38 ar  
    71    37    70 1   
    72    38    39 1   
    73    39    71 1   
@<TRIPOS>SUBSTRUCTURE
     1 PYW         1 TEMP              0 ****  ****    0 ROOT
