@<TRIPOS>MOLECULE
PYW
   71    73     1     0     0
SMALL
No Charge or Current Charge


@<TRIPOS>ATOM
      1 CAO         -0.6500     4.5570     1.8030 ca         1 PYW      -0.077000
      2 CAK         -0.5190     5.9530     1.8620 ca         1 PYW      -0.164000
      3 CAM          0.7620     6.5270     1.8040 ca         1 PYW       0.329900
      4 NAT          1.8910     5.7910     1.7030 nb         1 PYW      -0.669000
      5 CAQ          1.7610     4.4440     1.6430 ca         1 PYW       0.353900
      6 CBF          0.5160     3.7770     1.6740 ca         1 PYW      -0.110300
      7 CAS          0.4510     2.2470     1.6300 c3         1 PYW      -0.029100
      8 CBL         -0.5820     1.6440     0.6220 c3         1 PYW       0.140700
      9 NAV         -0.7710     0.1960     0.7790 ns         1 PYW      -0.504900
     10 C           -1.1280    -0.5050     1.9160 c          1 PYW       0.618100
     11 O           -1.3890     0.0380     2.9800 o          1 PYW      -0.571100
     12 CBK         -0.3470     1.9600    -0.9040 c3         1 PYW       0.173300
     13 OAJ         -0.6810     3.3280    -1.1820 oh         1 PYW      -0.649000
     14 CBJ          1.0310     1.6110    -1.5800 c3         1 PYW      -0.131700
     15 CAD          2.1820     2.6370    -1.3480 c3         1 PYW      -0.082100
     16 CBD          1.5040     0.1510    -1.3440 c          1 PYW       0.608100
     17 OAH          1.4670    -0.7060    -2.2160 o          1 PYW      -0.492000
     18 OAX          2.2340     0.0220    -0.1880 os         1 PYW      -0.320200
     19 CBE          3.0090    -1.1130     0.0580 ce         1 PYW      -0.011100
     20 CAZ          4.3150    -1.1600    -0.3310 c2         1 PYW      -0.021400
     21 CAB          5.2690    -2.3200    -0.0590 c3         1 PYW      -0.063900
     22 CAR          5.0010    -0.0060    -1.0600 c3         1 PYW      -0.047200
     23 CAA          5.5850     1.0360    -0.0870 c3         1 PYW      -0.087100
     24 CBA          2.3280    -2.2040     0.8690 c          1 PYW       0.622300
     25 OAE          2.9080    -3.0740     1.5060 o          1 PYW      -0.481000
     26 OG1          0.9680    -2.0280     0.8830 os         1 PYW      -0.445100
     27 CB           0.1240    -2.7130     1.8320 c3         1 PYW       0.186300
     28 CG2          0.0830    -4.2280     1.5010 c3         1 PYW      -0.130100
     29 CA          -1.2650    -2.0350     1.6950 c3         1 PYW       0.027700
     30 N           -1.8740    -2.3220     0.3670 ns         1 PYW      -0.480900
     31 CBB         -3.2190    -2.2460     0.0840 c          1 PYW       0.512600
     32 OAF         -4.0330    -1.8910     0.9320 o          1 PYW      -0.633100
     33 CBH         -3.6150    -2.6200    -1.3410 ca         1 PYW       0.162500
     34 NAU         -2.6300    -2.9870    -2.2210 nb         1 PYW      -0.647000
     35 CAN         -2.9880    -3.3160    -3.4860 ca         1 PYW       0.292900
     36 CAL         -4.3220    -3.2950    -3.9310 ca         1 PYW      -0.096000
     37 CAP         -5.3400    -2.9200    -3.0360 ca         1 PYW      -0.134000
     38 CBG         -4.9870    -2.5760    -1.7210 ca         1 PYW       0.181100
     39 OAI         -5.9700    -2.2060    -0.8410 oh         1 PYW      -0.532100
     40 HAO         -1.6350     4.0980     1.8580 ha         1 PYW       0.112000
     41 HAK         -1.3950     6.5890     1.9540 ha         1 PYW       0.119000
     42 HAM          0.8890     7.6080     1.8490 h4         1 PYW       0.015100
     43 HAQ          2.6910     3.8820     1.5780 h4         1 PYW       0.016100
     44 HAS1         1.4400     1.8200     1.4420 hc         1 PYW       0.073200
     45 HAS2         0.1990     1.9160     2.6410 hc         1 PYW       0.073200
     46 HBL         -1.5570     2.0780     0.8760 h1         1 PYW       0.048700
     47 HAV         -0.6150    -0.3910    -0.0300 hn         1 PYW       0.313500
     48 HBK         -1.0870     1.3390    -1.4290 h1         1 PYW       0.044700
     49 HA          -1.9270    -2.4190     2.4810 h1         1 PYW       0.099700
     50 HAJ         -0.7160     3.4280    -2.1580 ho         1 PYW       0.446000
     51 HBJ          0.8230     1.6590    -2.6560 hc         1 PYW       0.056700
     52 HAD1         2.5950     2.5780    -0.3370 hc         1 PYW       0.053700
     53 HAD2         3.0040     2.4440    -2.0470 hc         1 PYW       0.053700
     54 HAD3         1.8530     3.6680    -1.5220 hc         1 PYW       0.053700
     55 HAB1         4.8010    -3.2830    -0.2920 hc         1 PYW       0.058700
     56 HAB2         6.1870    -2.2700    -0.6560 hc         1 PYW       0.058700
     57 HAB3         5.5710    -2.3360     0.9950 hc         1 PYW       0.058700
     58 HAR1         5.7990    -0.3650    -1.7210 hc         1 PYW       0.052200
     59 HAR2         4.2940     0.4960    -1.7280 hc         1 PYW       0.052200
     60 HAA1         4.7970     1.4530     0.5520 hc         1 PYW       0.040700
     61 HAA2         6.3470     0.5800     0.5560 hc         1 PYW       0.040700
     62 HAA3         6.0500     1.8590    -0.6420 hc         1 PYW       0.040700
     63 HB           0.4880    -2.5670     2.8590 h1         1 PYW       0.068700
     64 HG21         0.9930    -4.7340     1.8410 hc         1 PYW       0.057033
     65 HG22        -0.7630    -4.7060     2.0090 hc         1 PYW       0.057033
     66 HG23        -0.0240    -4.3980     0.4230 hc         1 PYW       0.057033
     67 H           -1.2860    -2.6520    -0.3940 hn         1 PYW       0.355500
     68 HAN         -2.1830    -3.6030    -4.1600 h4         1 PYW       0.027100
     69 HAL         -4.5560    -3.5680    -4.9560 ha         1 PYW       0.129000
     70 HAP         -6.3790    -2.8950    -3.3540 ha         1 PYW       0.141000
     71 HAI         -5.5160    -2.0010     0.0210 ho         1 PYW       0.524000
@<TRIPOS>BOND
     1     1     2 ar  
     2     1     6 ar  
     3     1    40 1   
     4     2     3 ar  
     5     2    41 1   
     6     3     4 ar  
     7     3    42 1   
     8     4     5 ar  
     9     5     6 ar  
    10     5    43 1   
    11     6     7 1   
    12     7     8 1   
    13     7    44 1   
    14     7    45 1   
    15     8     9 1   
    16     8    12 1   
    17     8    46 1   
    18     9    10 1   
    19     9    47 1   
    20    10    11 2   
    21    10    29 1   
    22    12    13 1   
    23    12    14 1   
    24    12    48 1   
    25    13    50 1   
    26    14    15 1   
    27    14    16 1   
    28    14    51 1   
    29    15    52 1   
    30    15    53 1   
    31    15    54 1   
    32    16    17 2   
    33    16    18 1   
    34    18    19 1   
    35    19    20 2   
    36    19    24 1   
    37    20    21 1   
    38    20    22 1   
    39    21    55 1   
    40    21    56 1   
    41    21    57 1   
    42    22    23 1   
    43    22    58 1   
    44    22    59 1   
    45    23    60 1   
    46    23    61 1   
    47    23    62 1   
    48    24    25 2   
    49    24    26 1   
    50    26    27 1   
    51    27    28 1   
    52    27    29 1   
    53    27    63 1   
    54    28    64 1   
    55    28    65 1   
    56    28    66 1   
    57    29    30 1   
    58    29    49 1   
    59    30    31 1   
    60    30    67 1   
    61    31    32 2   
    62    31    33 1   
    63    33    34 ar  
    64    33    38 ar  
    65    34    35 ar  
    66    35    36 ar  
    67    35    68 1   
    68    36    37 ar  
    69    36    69 1   
    70    37    38 ar  
    71    37    70 1   
    72    38    39 1   
    73    39    71 1   
@<TRIPOS>SUBSTRUCTURE
     1 PYW         1 TEMP              0 ****  ****    0 ROOT
