@<TRIPOS>MOLECULE
PYX
   35    35     1     0     0
SMALL
No Charge or Current Charge


@<TRIPOS>ATOM
      1 N            2.8380    33.6250    25.6780 n8         1 PYX      -0.880800
      2 CA           3.0120    34.1890    24.2810 c3         1 PYX       0.025500
      3 C            1.7870    34.9840    23.6620 c          1 PYX       0.938600
      4 O            0.7390    34.3820    23.4460 o          1 PYX      -0.818300
      5 OXT          1.9080    36.1900    23.4640 o          1 PYX      -0.818300
      6 CB           3.4690    33.0790    23.3020 c3         1 PYX       0.023700
      7 SG           5.0580    32.2950    23.8420 ss         1 PYX      -0.263100
      8 SD           5.4420    30.8780    22.3490 ss         1 PYX      -0.198100
      9 CE           6.4390    31.8130    21.1100 c3         1 PYX       0.046000
     10 C1           6.7980    30.9350    19.9130 ca         1 PYX      -0.128600
     11 C2           6.0280    31.0670    18.7400 ca         1 PYX       0.382200
     12 C6           7.8680    30.0000    19.9270 ca         1 PYX      -0.054300
     13 N3           6.2530    30.3620    17.6110 nb         1 PYX      -0.646000
     14 C5           8.1100    29.2620    18.7420 ca         1 PYX       0.020800
     15 CM6          8.7520    29.7770    21.1630 c3         1 PYX       0.205100
     16 C4           7.2740    29.4790    17.6130 ca         1 PYX       0.327600
     17 O5           9.1460    28.3520    18.6950 oh         1 PYX      -0.507100
     18 N6           8.4720    28.4850    21.8160 n8         1 PYX      -0.863800
     19 CM4          7.4800    28.7170    16.3100 c3         1 PYX      -0.146400
     20 H            3.6440    33.0260    25.8890 hn         1 PYX       0.333800
     21 H2           2.0370    32.9840    25.6830 hn         1 PYX       0.333800
     22 HA           3.8350    34.9140    24.3380 h1         1 PYX       0.059700
     23 HB2          2.6950    32.3040    23.2240 h1         1 PYX       0.069700
     24 HB3          3.6170    33.5120    22.3040 h1         1 PYX       0.069700
     25 HE2          5.8470    32.6750    20.7750 h1         1 PYX       0.073200
     26 HE3          7.3420    32.2090    21.5900 h1         1 PYX       0.073200
     27 HC2          5.1980    31.7720    18.7010 h4         1 PYX       0.030100
     28 HM61         9.8080    29.7900    20.8580 h1         1 PYX       0.038700
     29 HM62         8.6190    30.5730    21.9050 h1         1 PYX       0.038700
     30 HO5          9.1780    27.9400    17.8060 ho         1 PYX       0.426000
     31 HN61         9.1580    28.3330    22.5600 hn         1 PYX       0.335800
     32 HN62         8.6610    27.7450    21.1330 hn         1 PYX       0.335800
     33 HM41         8.4750    28.9140    15.8940 hc         1 PYX       0.045700
     34 HM42         7.3830    27.6370    16.4680 hc         1 PYX       0.045700
     35 HM43         6.7450    29.0030    15.5470 hc         1 PYX       0.045700
@<TRIPOS>BOND
     1     1     2 1   
     2     1    20 1   
     3     1    21 1   
     4     2     3 1   
     5     2     6 1   
     6     2    22 1   
     7     3     4 1   
     8     3     5 1   
     9     6     7 1   
    10     6    23 1   
    11     6    24 1   
    12     7     8 1   
    13     8     9 1   
    14     9    10 1   
    15     9    25 1   
    16     9    26 1   
    17    10    11 ar  
    18    10    12 ar  
    19    11    13 ar  
    20    11    27 1   
    21    12    14 ar  
    22    12    15 1   
    23    13    16 ar  
    24    14    16 ar  
    25    14    17 1   
    26    15    18 1   
    27    15    28 1   
    28    15    29 1   
    29    16    19 1   
    30    17    30 1   
    31    18    31 1   
    32    18    32 1   
    33    19    33 1   
    34    19    34 1   
    35    19    35 1   
@<TRIPOS>SUBSTRUCTURE
     1 PYX         1 TEMP              0 ****  ****    0 ROOT
