@<TRIPOS>MOLECULE
PYX
   35    35     1     0     0
SMALL
bcc


@<TRIPOS>ATOM
      1 N            2.6020    33.0110    25.4060 n8         1 PYX      -0.880800
      2 CA           3.0940    33.9760    24.4440 c3         1 PYX       0.025500
      3 C            1.9530    34.9100    23.9410 c          1 PYX       0.938600
      4 O            0.7920    34.4690    24.0280 o          1 PYX      -0.818300
      5 OXT          2.3200    35.9980    23.4620 o          1 PYX      -0.818300
      6 CB           3.7410    33.3520    23.1980 c3         1 PYX       0.023700
      7 SG           5.2480    32.4370    23.6880 ss         1 PYX      -0.263100
      8 SD           5.5030    31.0540    22.2000 ss         1 PYX      -0.198100
      9 CE           6.4560    31.9770    20.9340 c3         1 PYX       0.046000
     10 C1           6.7870    31.0310    19.8230 ca         1 PYX      -0.128600
     11 C2           6.0170    31.0680    18.6660 ca         1 PYX       0.382200
     12 C6           7.8220    30.0950    19.8990 ca         1 PYX      -0.054300
     13 N3           6.2170    30.2800    17.6220 nb         1 PYX      -0.646000
     14 C5           8.0210    29.2730    18.7900 ca         1 PYX       0.020800
     15 CM6          8.7120    29.9390    21.1060 c3         1 PYX       0.205100
     16 C4           7.2000    29.3900    17.6620 ca         1 PYX       0.327600
     17 O5           9.0280    28.3780    18.8550 oh         1 PYX      -0.507100
     18 N6           8.4070    28.7120    21.8330 n8         1 PYX      -0.863800
     19 CM4          7.4130    28.5160    16.4620 c3         1 PYX      -0.146400
     20 H            3.2700    32.2600    25.5280 hn         1 PYX       0.333800
     21 H2           1.7550    32.5960    25.0370 hn         1 PYX       0.333800
     22 HA           3.8430    34.6100    24.9310 h1         1 PYX       0.059700
     23 HB2          3.0550    32.6450    22.7270 h1         1 PYX       0.069700
     24 HB3          4.0150    34.1180    22.4740 h1         1 PYX       0.069700
     25 HE2          5.8410    32.7980    20.5660 h1         1 PYX       0.073200
     26 HE3          7.3410    32.4000    21.4070 h1         1 PYX       0.073200
     27 HC2          5.2030    31.7810    18.5850 h4         1 PYX       0.030100
     28 HM61         9.7580    30.0110    20.7800 h1         1 PYX       0.038700
     29 HM62         8.5520    30.7730    21.7860 h1         1 PYX       0.038700
     30 HO5          9.0800    27.8460    18.0540 ho         1 PYX       0.426000
     31 HN61         8.9230    28.7190    22.7040 hn         1 PYX       0.335800
     32 HN62         8.7550    27.9140    21.3170 hn         1 PYX       0.335800
     33 HM41         8.4040    28.6580    16.0240 hc         1 PYX       0.045700
     34 HM42         7.3110    27.4540    16.7020 hc         1 PYX       0.045700
     35 HM43         6.6770    28.7520    15.6980 hc         1 PYX       0.045700
@<TRIPOS>BOND
     1     1     2 1   
     2     1    20 1   
     3     1    21 1   
     4     2     3 1   
     5     2     6 1   
     6     2    22 1   
     7     3     4 1   
     8     3     5 1   
     9     6     7 1   
    10     6    23 1   
    11     6    24 1   
    12     7     8 1   
    13     8     9 1   
    14     9    10 1   
    15     9    25 1   
    16     9    26 1   
    17    10    11 ar  
    18    10    12 ar  
    19    11    13 ar  
    20    11    27 1   
    21    12    14 ar  
    22    12    15 1   
    23    13    16 ar  
    24    14    16 ar  
    25    14    17 1   
    26    15    18 1   
    27    15    28 1   
    28    15    29 1   
    29    16    19 1   
    30    17    30 1   
    31    18    31 1   
    32    18    32 1   
    33    19    33 1   
    34    19    34 1   
    35    19    35 1   
@<TRIPOS>SUBSTRUCTURE
     1 PYX         1 TEMP              0 ****  ****    0 ROOT
