@<TRIPOS>MOLECULE
PYZ
    9     9     1     0     0
SMALL
abcg2


@<TRIPOS>ATOM
      1 N1           0.6530     0.0110     2.9740 na         1 PYZ       0.002800
      2 N2          -0.6710     0.0230     3.0590 nc         1 PYZ      -0.518800
      3 C3          -1.1000     0.0220     1.8120 cd         1 PYZ       0.273900
      4 C4          -0.0160     0.0100     0.9180 cd         1 PYZ       0.051000
      5 I4          -0.0810     0.0040    -1.1480 i          1 PYZ      -0.262000
      6 C5           1.1080     0.0040     1.7130 cc         1 PYZ      -0.134000
      7 HN1          1.2100     0.0090     3.8150 hn         1 PYZ       0.374000
      8 H3          -2.1550     0.0300     1.5850 h4         1 PYZ       0.048100
      9 H5           2.1580    -0.0060     1.4740 h4         1 PYZ       0.165000
@<TRIPOS>BOND
     1     1     2 1   
     2     1     6 1   
     3     1     7 1   
     4     2     3 2   
     5     3     4 1   
     6     3     8 1   
     7     4     5 1   
     8     4     6 2   
     9     6     9 1   
@<TRIPOS>SUBSTRUCTURE
     1 PYZ         1 TEMP              0 ****  ****    0 ROOT
