@<TRIPOS>MOLECULE
PYZ
    9     9     1     0     0
SMALL
No Charge or Current Charge


@<TRIPOS>ATOM
      1 N1           0.6500     0.0110     3.0060 na         1 PYZ       0.002800
      2 N2          -0.7350     0.0230     3.0930 nc         1 PYZ      -0.518800
      3 C3          -1.0990     0.0220     1.8210 cd         1 PYZ       0.273900
      4 C4          -0.0020     0.0100     0.9260 cd         1 PYZ       0.051000
      5 I4          -0.0880     0.0040    -1.1940 i          1 PYZ      -0.262000
      6 C5           1.1270     0.0030     1.6950 cc         1 PYZ      -0.134000
      7 HN1          1.2280     0.0090     3.8470 hn         1 PYZ       0.374000
      8 H3          -2.1530     0.0300     1.5730 h4         1 PYZ       0.048100
      9 H5           2.1780    -0.0060     1.4360 h4         1 PYZ       0.165000
@<TRIPOS>BOND
     1     1     2 1   
     2     1     6 1   
     3     1     7 1   
     4     2     3 2   
     5     3     4 1   
     6     3     8 1   
     7     4     5 1   
     8     4     6 2   
     9     6     9 1   
@<TRIPOS>SUBSTRUCTURE
     1 PYZ         1 TEMP              0 ****  ****    0 ROOT
