@<TRIPOS>MOLECULE
PZ0
   48    50     1     0     0
SMALL
No Charge or Current Charge


@<TRIPOS>ATOM
      1 C10        173.5660   178.5580   156.2150 ca         1 PZ0      -0.062000
      2 C13        175.4920   176.7810   157.2660 ca         1 PZ0      -0.145300
      3 C15        175.1100   174.8360   159.6260 ca         1 PZ0       0.131100
      4 C17        173.5600   173.8300   161.2190 ca         1 PZ0      -0.062500
      5 C20        175.1320   176.0130   160.4050 ca         1 PZ0      -0.165500
      6 C22        172.8440   174.7890   165.7290 c3         1 PZ0       0.142100
      7 C01        178.0440   180.1200   159.5350 ca         1 PZ0      -0.102300
      8 C02        179.2600   180.6080   159.0170 ca         1 PZ0      -0.084000
      9 C03        180.3910   180.7130   159.8470 ca         1 PZ0      -0.114000
     10 C04        180.3130   180.3290   161.1960 ca         1 PZ0      -0.096000
     11 C05        179.1030   179.8380   161.7160 ca         1 PZ0      -0.114000
     12 C06        177.9720   179.7340   160.8880 ca         1 PZ0      -0.084000
     13 C08        175.6030   178.1690   157.5100 ca         1 PZ0       0.144100
     14 C09        174.6340   179.0540   156.9820 ca         1 PZ0      -0.189000
     15 C11        173.4600   177.1810   155.9690 ca         1 PZ0       0.088000
     16 C12        174.4180   176.2970   156.4890 ca         1 PZ0      -0.049000
     17 C14        176.5200   175.7920   157.8220 c3         1 PZ0       0.216900
     18 C16        174.3270   173.7490   160.0430 ca         1 PZ0      -0.165500
     19 C18        173.5740   175.0060   161.9940 ca         1 PZ0      -0.124300
     20 C19        174.3650   176.0950   161.5810 ca         1 PZ0      -0.062500
     21 N01        173.5610   174.7690   164.4400 n7         1 PZ0      -0.858400
     22 O01        176.6630   178.6230   158.2680 os         1 PZ0      -0.356100
     23 O02        175.8400   174.6920   158.4620 os         1 PZ0      -0.352100
     24 Cl1        172.1240   176.5610   155.0070 cl         1 PZ0      -0.211000
     25 H1         172.8220   179.2390   155.8100 ha         1 PZ0       0.129000
     26 H2         172.9550   172.9790   161.5260 ha         1 PZ0       0.114000
     27 H3         175.7370   176.8680   160.1220 ha         1 PZ0       0.124500
     28 H4         172.3340   176.1180   163.3520 h1         1 PZ0       0.035200
     29 H5         171.8850   174.4140   163.1850 h1         1 PZ0       0.035200
     30 H6         173.5240   174.5360   166.5540 h1         1 PZ0       0.029700
     31 H7         172.4220   175.7830   165.9280 h1         1 PZ0       0.029700
     32 H8         172.0210   174.0600   165.7320 h1         1 PZ0       0.029700
     33 H9         179.3300   180.9060   157.9730 ha         1 PZ0       0.115000
     34 H10        181.3280   181.0910   159.4420 ha         1 PZ0       0.116500
     35 H11        181.1890   180.4090   161.8370 ha         1 PZ0       0.115000
     36 H12        179.0420   179.5390   162.7600 ha         1 PZ0       0.116500
     37 H13        177.0390   179.3500   161.2970 ha         1 PZ0       0.115000
     38 H14        176.9400   180.6330   157.7520 h1         1 PZ0       0.044700
     39 H15        175.9340   180.3530   159.1930 h1         1 PZ0       0.044700
     40 H16        174.6930   180.1250   157.1530 ha         1 PZ0       0.122000
     41 H17        174.3230   175.2320   156.2900 ha         1 PZ0       0.146000
     42 H18        177.1240   175.4170   156.9860 h1         1 PZ0       0.073200
     43 H19        177.2150   176.2750   158.5210 h1         1 PZ0       0.073200
     44 H20        174.3110   172.8380   159.4500 ha         1 PZ0       0.124500
     45 H21        174.3880   177.0050   162.1770 ha         1 PZ0       0.114000
     46 H22        173.9410   173.8260   164.2970 hn         1 PZ0       0.407000
     47 C21        172.7400   175.1010   163.2630 c3         1 PZ0       0.206100
     48 C07        176.8160   180.0020   158.6420 c3         1 PZ0       0.212900
@<TRIPOS>BOND
     1     1    14 ar  
     2     1    15 ar  
     3     1    25 1   
     4     2    13 ar  
     5     2    16 ar  
     6     2    17 1   
     7     3     5 ar  
     8     3    18 ar  
     9     3    23 1   
    10     4    18 ar  
    11     4    19 ar  
    12     4    26 1   
    13     5    20 ar  
    14     5    27 1   
    15     6    21 1   
    16     6    30 1   
    17     6    31 1   
    18     6    32 1   
    19     7     8 ar  
    20     7    12 ar  
    21     7    48 1   
    22     8     9 ar  
    23     8    33 1   
    24     9    10 ar  
    25     9    34 1   
    26    10    11 ar  
    27    10    35 1   
    28    11    12 ar  
    29    11    36 1   
    30    12    37 1   
    31    13    14 ar  
    32    13    22 1   
    33    14    40 1   
    34    15    16 ar  
    35    15    24 1   
    36    16    41 1   
    37    17    23 1   
    38    17    42 1   
    39    17    43 1   
    40    18    44 1   
    41    19    20 ar  
    42    19    47 1   
    43    20    45 1   
    44    21    46 1   
    45    21    47 1   
    46    22    48 1   
    47    28    47 1   
    48    29    47 1   
    49    38    48 1   
    50    39    48 1   
@<TRIPOS>SUBSTRUCTURE
     1 PZ0         1 TEMP              0 ****  ****    0 ROOT
