@<TRIPOS>MOLECULE
PZ0
   48    50     1     0     0
SMALL
abcg2


@<TRIPOS>ATOM
      1 C10        173.7300   178.8460   156.4680 ca         1 PZ0      -0.062000
      2 C13        175.4530   177.1550   157.8830 ca         1 PZ0      -0.145300
      3 C15        174.9910   174.8770   159.9890 ca         1 PZ0       0.131100
      4 C17        173.6080   173.3790   161.2730 ca         1 PZ0      -0.062500
      5 C20        174.5590   175.9430   160.7780 ca         1 PZ0      -0.165500
      6 C22        172.0180   173.8490   165.6150 c3         1 PZ0       0.142100
      7 C01        178.5870   180.4820   158.9440 ca         1 PZ0      -0.102300
      8 C02        179.8210   180.5270   158.2970 ca         1 PZ0      -0.084000
      9 C03        180.9960   180.6760   159.0270 ca         1 PZ0      -0.114000
     10 C04        180.9450   180.7800   160.4130 ca         1 PZ0      -0.096000
     11 C05        179.7160   180.7360   161.0670 ca         1 PZ0      -0.114000
     12 C06        178.5440   180.5900   160.3350 ca         1 PZ0      -0.084000
     13 C08        175.7810   178.5070   157.6930 ca         1 PZ0       0.144100
     14 C09        174.9220   179.3460   156.9870 ca         1 PZ0      -0.189000
     15 C11        173.4160   177.5120   156.6570 ca         1 PZ0       0.088000
     16 C12        174.2680   176.6650   157.3550 ca         1 PZ0      -0.049000
     17 C14        176.4120   176.2700   158.6400 c3         1 PZ0       0.216900
     18 C16        174.5070   173.5930   160.2390 ca         1 PZ0      -0.165500
     19 C18        173.1680   174.4310   162.0790 ca         1 PZ0      -0.124300
     20 C19        173.6600   175.7070   161.8130 ca         1 PZ0      -0.062500
     21 N01        172.9130   174.1750   164.5090 n7         1 PZ0      -0.858400
     22 O01        176.9640   178.9020   158.2360 os         1 PZ0      -0.356100
     23 O02        175.8740   174.9890   158.9500 os         1 PZ0      -0.352100
     24 CL1        171.9130   176.8740   156.0120 cl         1 PZ0      -0.211000
     25 H1         173.0610   179.4970   155.9230 ha         1 PZ0       0.129000
     26 H2         173.2390   172.3770   161.4560 ha         1 PZ0       0.114000
     27 H3         174.9010   176.9510   160.5930 ha         1 PZ0       0.124500
     28 H4         171.4670   174.9850   163.2570 h1         1 PZ0       0.035200
     29 H5         171.6720   173.2470   163.0420 h1         1 PZ0       0.035200
     30 H6         172.5910   173.7740   166.5410 h1         1 PZ0       0.029700
     31 H7         171.2810   174.6470   165.7350 h1         1 PZ0       0.029700
     32 H8         171.4690   172.9060   165.4690 h1         1 PZ0       0.029700
     33 H9         179.8600   180.4470   157.2170 ha         1 PZ0       0.115000
     34 H10        181.9490   180.7130   158.5140 ha         1 PZ0       0.116500
     35 H11        181.8580   180.8980   160.9830 ha         1 PZ0       0.115000
     36 H12        179.6720   180.8210   162.1460 ha         1 PZ0       0.116500
     37 H13        177.5870   180.5610   160.8420 ha         1 PZ0       0.115000
     38 H14        177.4590   180.5800   157.1190 h1         1 PZ0       0.044700
     39 H15        176.5100   180.8920   158.5900 h1         1 PZ0       0.044700
     40 H16        175.1650   180.3860   156.8310 ha         1 PZ0       0.122000
     41 H17        174.0070   175.6260   157.4950 ha         1 PZ0       0.146000
     42 H18        177.2930   176.0660   158.0290 h1         1 PZ0       0.073200
     43 H19        176.7580   176.7700   159.5470 h1         1 PZ0       0.073200
     44 H20        174.8440   172.7750   159.6140 ha         1 PZ0       0.124500
     45 H21        173.3290   176.5410   162.4200 ha         1 PZ0       0.114000
     46 H22        173.6530   173.4820   164.4640 hn         1 PZ0       0.407000
     47 C21        172.2150   174.1880   163.2180 c3         1 PZ0       0.206100
     48 C07        177.3210   180.2960   158.1650 c3         1 PZ0       0.212900
@<TRIPOS>BOND
     1     1    14 ar  
     2     1    15 ar  
     3     1    25 1   
     4     2    13 ar  
     5     2    16 ar  
     6     2    17 1   
     7     3     5 ar  
     8     3    18 ar  
     9     3    23 1   
    10     4    18 ar  
    11     4    19 ar  
    12     4    26 1   
    13     5    20 ar  
    14     5    27 1   
    15     6    21 1   
    16     6    30 1   
    17     6    31 1   
    18     6    32 1   
    19     7     8 ar  
    20     7    12 ar  
    21     7    48 1   
    22     8     9 ar  
    23     8    33 1   
    24     9    10 ar  
    25     9    34 1   
    26    10    11 ar  
    27    10    35 1   
    28    11    12 ar  
    29    11    36 1   
    30    12    37 1   
    31    13    14 ar  
    32    13    22 1   
    33    14    40 1   
    34    15    16 ar  
    35    15    24 1   
    36    16    41 1   
    37    17    23 1   
    38    17    42 1   
    39    17    43 1   
    40    18    44 1   
    41    19    20 ar  
    42    19    47 1   
    43    20    45 1   
    44    21    46 1   
    45    21    47 1   
    46    22    48 1   
    47    28    47 1   
    48    29    47 1   
    49    38    48 1   
    50    39    48 1   
@<TRIPOS>SUBSTRUCTURE
     1 PZ0         1 TEMP              0 ****  ****    0 ROOT
