@<TRIPOS>MOLECULE
PZ1
   84    88     1     0     0
SMALL
bcc


@<TRIPOS>ATOM
      1 C1         -11.2340     0.1730    -2.2320 c3         1 PZ1       0.126700
      2 O1         -10.0520     0.4070    -1.4930 os         1 PZ1      -0.327900
      3 C2         -10.1490     0.6350    -0.1670 ca         1 PZ1       0.138100
      4 C3          -8.9370     0.8950     0.4920 ca         1 PZ1      -0.116300
      5 C4          -7.6620     0.8940    -0.3070 c3         1 PZ1       0.195700
      6 O2          -6.5830     1.2350     0.5170 os         1 PZ1      -0.414600
      7 C5         -11.3480     0.6250     0.5380 ca         1 PZ1      -0.216000
      8 C6         -11.3450     0.8730     1.9070 ca         1 PZ1      -0.090000
      9 C7         -10.1580     1.1290     2.5690 ca         1 PZ1      -0.167000
     10 C8          -8.9620     1.1380     1.8560 ca         1 PZ1      -0.071000
     11 C20          4.3670     1.8970     0.5690 c6         1 PZ1       0.133700
     12 C21          5.7750     2.0540     0.0180 c6         1 PZ1       0.144800
     13 N2           6.0440     3.4590    -0.1600 n7         1 PZ1      -0.800200
     14 C22          5.2500     3.9670    -1.2520 c6         1 PZ1       0.072800
     15 C23          3.7750     3.7230    -1.0370 c          1 PZ1       0.718500
     16 N3           3.4210     2.7130    -0.2000 n          1 PZ1      -0.401000
     17 C24          3.9270     0.4370     0.5170 c3         1 PZ1       0.119400
     18 O6           4.8630    -0.3030     1.2660 os         1 PZ1      -0.327900
     19 C25          1.1830     1.9420    -0.8030 ca         1 PZ1      -0.083500
     20 C26          2.0350     2.5610     0.0970 ca         1 PZ1      -0.003400
     21 C27          1.5250     3.0220     1.3050 ca         1 PZ1      -0.083500
     22 C28          0.1870     2.8570     1.6110 ca         1 PZ1      -0.187000
     23 C29         -0.6720     2.2390     0.7010 ca         1 PZ1       0.151100
     24 C30         -0.1650     1.7810    -0.5140 ca         1 PZ1      -0.187000
     25 O7          -1.9590     2.1300     1.0770 os         1 PZ1      -0.321900
     26 C31         -2.9050     1.6210     0.1500 c3         1 PZ1       0.143400
     27 C32         -4.2680     1.6710     0.8080 c3         1 PZ1      -0.087400
     28 C33         -5.3470     1.2080    -0.1530 c3         1 PZ1       0.144400
     29 C34          4.7310    -2.4180    -3.5350 c3         1 PZ1       0.143400
     30 C9           5.8730    -2.2850     1.9600 ce         1 PZ1      -0.174000
     31 C10          5.9300    -3.6280     2.0370 cf         1 PZ1      -0.046000
     32 C11          4.9320    -4.4590     1.4380 cf         1 PZ1      -0.211200
     33 C12          3.7170    -3.8450     0.7810 c6         1 PZ1       0.350900
     34 C13          3.7580    -2.3490     0.7170 c2         1 PZ1      -0.320200
     35 C14          4.7640    -1.6500     1.2690 ce         1 PZ1       0.171100
     36 C15          5.0160    -5.8140     1.3620 ce         1 PZ1      -0.028000
     37 C16          4.1710    -6.5270     0.4630 ce         1 PZ1      -0.303000
     38 C17          3.6230    -5.8100    -0.5690 c2         1 PZ1       0.119000
     39 N1           3.5480    -4.4710    -0.5500 nh         1 PZ1      -0.656400
     40 C18          3.4920    -3.7160    -1.7840 c3         1 PZ1       0.226800
     41 C19          4.8630    -3.3070    -2.3140 c3         1 PZ1      -0.111400
     42 O3           6.0200    -2.0790    -3.9960 oh         1 PZ1      -0.595800
     43 H1C1       -11.7450    -0.7380    -1.9080 h1         1 PZ1       0.040367
     44 H1C2       -11.9310     1.0110    -2.1620 h1         1 PZ1       0.040367
     45 H1C3       -10.9310     0.0540    -3.2690 h1         1 PZ1       0.040367
     46 H4C1        -7.5080    -0.0980    -0.7590 h1         1 PZ1       0.035700
     47 H4C2        -7.7450     1.6010    -1.1460 h1         1 PZ1       0.035700
     48 H5         -12.2870     0.4240     0.0410 ha         1 PZ1       0.134000
     49 H6         -12.2830     0.8640     2.4480 ha         1 PZ1       0.129000
     50 H7         -10.1530     1.3190     3.6340 ha         1 PZ1       0.134000
     51 H8          -8.0380     1.3390     2.3790 ha         1 PZ1       0.150000
     52 H20          4.3560     2.2330     1.6120 h1         1 PZ1       0.073700
     53 H211         6.4820     1.6350     0.7320 h1         1 PZ1       0.052200
     54 H212         5.8680     1.4780    -0.9190 h1         1 PZ1       0.052200
     55 H2           7.0250     3.6110    -0.3510 hn         1 PZ1       0.370800
     56 H221         5.3900     5.0430    -1.3560 h1         1 PZ1       0.062700
     57 H222         5.5050     3.5140    -2.2250 h1         1 PZ1       0.062700
     58 H241         2.9210     0.3140     0.9320 h1         1 PZ1       0.046700
     59 H242         3.9020     0.0940    -0.5260 h1         1 PZ1       0.046700
     60 H25          1.5690     1.5730    -1.7440 ha         1 PZ1       0.139000
     61 H27          2.1750     3.5180     2.0160 ha         1 PZ1       0.139000
     62 H28         -0.2040     3.2200     2.5530 ha         1 PZ1       0.142500
     63 H30         -0.7960     1.2930    -1.2450 ha         1 PZ1       0.142500
     64 H311        -2.6530     0.5910    -0.1270 h1         1 PZ1       0.034700
     65 H312        -2.8960     2.2230    -0.7660 h1         1 PZ1       0.034700
     66 H321        -4.4830     2.6930     1.1290 hc         1 PZ1       0.069700
     67 H322        -4.2710     1.0330     1.6960 hc         1 PZ1       0.069700
     68 H331        -5.1260     0.1940    -0.5170 h1         1 PZ1       0.021200
     69 H332        -5.3720     1.8640    -1.0350 h1         1 PZ1       0.021200
     70 H341         4.1520    -2.9420    -4.3090 h1         1 PZ1       0.013200
     71 H342         4.1540    -1.5220    -3.2660 h1         1 PZ1       0.013200
     72 H9           6.6460    -1.6590     2.3880 ha         1 PZ1       0.144000
     73 H10          6.7640    -4.1090     2.5350 ha         1 PZ1       0.130000
     74 H112         2.8230    -4.1600     1.3480 h1         1 PZ1       0.059700
     75 H13          2.9000    -1.8540     0.2830 ha         1 PZ1       0.134000
     76 H15          5.8060    -6.3470     1.8810 ha         1 PZ1       0.128000
     77 H16          4.1770    -7.6060     0.4180 ha         1 PZ1       0.142000
     78 H17          3.2920    -6.2950    -1.4800 h4         1 PZ1       0.136000
     79 H181         2.9810    -4.3400    -2.5220 h1         1 PZ1       0.047700
     80 H182         2.8640    -2.8350    -1.6430 h1         1 PZ1       0.047700
     81 H191         5.4090    -2.7740    -1.5320 hc         1 PZ1       0.066200
     82 H192         5.4370    -4.2040    -2.5650 hc         1 PZ1       0.066200
     83 H3           5.9240    -1.5180    -4.7700 ho         1 PZ1       0.404000
     84 O5           2.9440     4.3980    -1.6220 o          1 PZ1      -0.622500
@<TRIPOS>BOND
     1     1     2 1   
     2     1    43 1   
     3     1    44 1   
     4     1    45 1   
     5     2     3 1   
     6     3     4 ar  
     7     3     7 ar  
     8     4     5 1   
     9     4    10 ar  
    10     5     6 1   
    11     5    46 1   
    12     5    47 1   
    13     6    28 1   
    14     7     8 ar  
    15     7    48 1   
    16     8     9 ar  
    17     8    49 1   
    18     9    10 ar  
    19     9    50 1   
    20    10    51 1   
    21    11    12 1   
    22    11    16 1   
    23    11    17 1   
    24    11    52 1   
    25    12    13 1   
    26    12    53 1   
    27    12    54 1   
    28    13    14 1   
    29    13    55 1   
    30    14    15 1   
    31    14    56 1   
    32    14    57 1   
    33    15    16 1   
    34    15    84 2   
    35    16    20 1   
    36    17    18 1   
    37    17    58 1   
    38    17    59 1   
    39    18    35 1   
    40    19    20 ar  
    41    19    24 ar  
    42    19    60 1   
    43    20    21 ar  
    44    21    22 ar  
    45    21    61 1   
    46    22    23 ar  
    47    22    62 1   
    48    23    24 ar  
    49    23    25 1   
    50    24    63 1   
    51    25    26 1   
    52    26    27 1   
    53    26    64 1   
    54    26    65 1   
    55    27    28 1   
    56    27    66 1   
    57    27    67 1   
    58    28    68 1   
    59    28    69 1   
    60    29    41 1   
    61    29    42 1   
    62    29    70 1   
    63    29    71 1   
    64    30    31 2   
    65    30    35 1   
    66    30    72 1   
    67    31    32 1   
    68    31    73 1   
    69    32    33 1   
    70    32    36 2   
    71    33    34 1   
    72    33    39 1   
    73    33    74 1   
    74    34    35 2   
    75    34    75 1   
    76    36    37 1   
    77    36    76 1   
    78    37    38 2   
    79    37    77 1   
    80    38    39 1   
    81    38    78 1   
    82    39    40 1   
    83    40    41 1   
    84    40    79 1   
    85    40    80 1   
    86    41    81 1   
    87    41    82 1   
    88    42    83 1   
@<TRIPOS>SUBSTRUCTURE
     1 PZ1         1 TEMP              0 ****  ****    0 ROOT
