@<TRIPOS>MOLECULE
PZ1
   84    88     1     0     0
SMALL
No Charge or Current Charge


@<TRIPOS>ATOM
      1 C1         -10.1840    -1.7990    -0.9840 c3         1 PZ1       0.149900
      2 O1          -9.5620    -0.5120    -0.8140 os         1 PZ1      -0.351100
      3 C2         -10.0210     0.4210     0.0970 ca         1 PZ1       0.138100
      4 C3          -9.3450     1.6590     0.2050 ca         1 PZ1      -0.116300
      5 C4          -8.1300     1.9820    -0.6600 c3         1 PZ1       0.218900
      6 O2          -6.9480     1.8650     0.1500 os         1 PZ1      -0.461000
      7 C5         -11.1450     0.1670     0.9170 ca         1 PZ1      -0.198000
      8 C6         -11.5890     1.1350     1.8340 ca         1 PZ1      -0.072000
      9 C7         -10.9150     2.3610     1.9390 ca         1 PZ1      -0.149000
     10 C8          -9.7980     2.6220     1.1290 ca         1 PZ1      -0.053000
     11 C20          4.3550     1.8920     0.6610 c6         1 PZ1       0.133700
     12 C21          5.8090     2.1280     0.1430 c6         1 PZ1       0.144800
     13 N2           6.1880     3.5590     0.1770 n7         1 PZ1      -0.855400
     14 C22          5.2610     4.3640    -0.6750 c6         1 PZ1       0.072800
     15 C23          3.7500     4.1280    -0.3670 c          1 PZ1       0.576000
     16 N3           3.3420     2.8240     0.0440 n          1 PZ1      -0.241400
     17 C24          3.9760     0.3820     0.5220 c3         1 PZ1       0.142600
     18 O6           4.9510    -0.4290     1.2050 os         1 PZ1      -0.351100
     19 C25          1.0320     2.7860    -0.8400 ca         1 PZ1      -0.065500
     20 C26          1.9420     2.4940     0.1990 ca         1 PZ1      -0.096000
     21 C27          1.4210     2.1950     1.4770 ca         1 PZ1      -0.065500
     22 C28          0.0370     2.0380     1.6670 ca         1 PZ1      -0.169000
     23 C29         -0.8550     2.2380     0.6050 ca         1 PZ1       0.151100
     24 C30         -0.3520     2.6300    -0.6530 ca         1 PZ1      -0.169000
     25 O7          -2.2020     2.0720     0.8510 os         1 PZ1      -0.345100
     26 C31         -3.1960     2.2600    -0.1700 c3         1 PZ1       0.166600
     27 C32         -4.5710     1.9800     0.4610 c3         1 PZ1      -0.087400
     28 C33         -5.7240     2.1500    -0.5420 c3         1 PZ1       0.167600
     29 C34          5.1230    -3.0840    -3.7400 c3         1 PZ1       0.166600
     30 C9           5.9170    -2.4890     1.9080 ce         1 PZ1      -0.224000
     31 C10          6.0240    -3.8420     1.9370 cf         1 PZ1      -0.096000
     32 C11          5.0800    -4.7120     1.2470 cf         1 PZ1      -0.211200
     33 C12          3.7950    -4.0320     0.6720 c6         1 PZ1       0.350900
     34 C13          3.8600    -2.5120     0.6020 c2         1 PZ1      -0.370200
     35 C14          4.8450    -1.8050     1.1950 ce         1 PZ1       0.171100
     36 C15          5.3080    -6.0360     1.0260 ce         1 PZ1      -0.078000
     37 C16          4.4000    -6.7960     0.1720 ce         1 PZ1      -0.353000
     38 C17          3.5380    -6.1360    -0.6230 c2         1 PZ1       0.069000
     39 N1           3.5030    -4.7430    -0.6200 nh         1 PZ1      -0.656400
     40 C18          3.5990    -3.9980    -1.8980 c3         1 PZ1       0.226800
     41 C19          5.0440    -3.8590    -2.4140 c3         1 PZ1      -0.111400
     42 O3           6.4850    -2.9980    -4.1670 oh         1 PZ1      -0.658000
     43 H1C1       -10.1540    -2.3730    -0.0490 h1         1 PZ1       0.040367
     44 H1C2       -11.2290    -1.6880    -1.2980 h1         1 PZ1       0.040367
     45 H1C3        -9.6570    -2.3760    -1.7540 h1         1 PZ1       0.040367
     46 H4C1        -8.0760     1.3070    -1.5240 h1         1 PZ1       0.035700
     47 H4C2        -8.2290     3.0050    -1.0480 h1         1 PZ1       0.035700
     48 H5         -11.6870    -0.7720     0.8590 ha         1 PZ1       0.116000
     49 H6         -12.4540     0.9350     2.4630 ha         1 PZ1       0.111000
     50 H7         -11.2580     3.1100     2.6490 ha         1 PZ1       0.116000
     51 H8          -9.2800     3.5750     1.2190 ha         1 PZ1       0.132000
     52 H20          4.3680     2.1120     1.7370 h1         1 PZ1       0.073700
     53 H211         6.5170     1.5540     0.7580 h1         1 PZ1       0.052200
     54 H212         5.8920     1.7520    -0.8890 h1         1 PZ1       0.052200
     55 H2           7.1540     3.6670    -0.1680 hn         1 PZ1       0.426000
     56 H221         5.4670     5.4380    -0.5520 h1         1 PZ1       0.062700
     57 H222         5.4070     4.1040    -1.7340 h1         1 PZ1       0.062700
     58 H241         2.9830     0.2030     0.9490 h1         1 PZ1       0.046700
     59 H242         3.9420     0.1270    -0.5450 h1         1 PZ1       0.046700
     60 H25          1.4030     3.1130    -1.8090 ha         1 PZ1       0.121000
     61 H27          2.0850     2.0780     2.3300 ha         1 PZ1       0.121000
     62 H28         -0.3470     1.7760     2.6500 ha         1 PZ1       0.124500
     63 H30         -1.0160     2.8290    -1.4900 ha         1 PZ1       0.124500
     64 H311        -3.0280     1.5680    -1.0060 h1         1 PZ1       0.034700
     65 H312        -3.1700     3.2890    -0.5510 h1         1 PZ1       0.034700
     66 H321        -4.7250     2.6610     1.3060 hc         1 PZ1       0.069700
     67 H322        -4.5850     0.9570     0.8550 hc         1 PZ1       0.069700
     68 H331        -5.5850     1.4580    -1.3840 h1         1 PZ1       0.021200
     69 H332        -5.7270     3.1770    -0.9300 h1         1 PZ1       0.021200
     70 H341         4.5190    -3.5990    -4.4980 h1         1 PZ1       0.013200
     71 H342         4.7060    -2.0780    -3.5980 h1         1 PZ1       0.013200
     72 H9           6.6580    -1.8730     2.4180 ha         1 PZ1       0.194000
     73 H10          6.8640    -4.3010     2.4650 ha         1 PZ1       0.180000
     74 H112         2.9810    -4.2740     1.3720 h1         1 PZ1       0.059700
     75 H13          3.0260    -2.0270     0.1030 ha         1 PZ1       0.184000
     76 H15          6.1980    -6.5280     1.4260 ha         1 PZ1       0.178000
     77 H16          4.4840    -7.8840     0.1490 ha         1 PZ1       0.192000
     78 H17          2.8750    -6.6420    -1.3320 h4         1 PZ1       0.186000
     79 H181         3.0000    -4.5160    -2.6600 h1         1 PZ1       0.047700
     80 H182         3.1620    -2.9970    -1.8050 h1         1 PZ1       0.047700
     81 H191         5.6480    -3.3440    -1.6580 hc         1 PZ1       0.066200
     82 H192         5.4750    -4.8570    -2.5490 hc         1 PZ1       0.066200
     83 H3           6.4880    -2.5020    -5.0160 ho         1 PZ1       0.443000
     84 O5           2.9450     5.0430    -0.5180 o          1 PZ1      -0.547000
@<TRIPOS>BOND
     1     1     2 1   
     2     1    43 1   
     3     1    44 1   
     4     1    45 1   
     5     2     3 1   
     6     3     4 ar  
     7     3     7 ar  
     8     4     5 1   
     9     4    10 ar  
    10     5     6 1   
    11     5    46 1   
    12     5    47 1   
    13     6    28 1   
    14     7     8 ar  
    15     7    48 1   
    16     8     9 ar  
    17     8    49 1   
    18     9    10 ar  
    19     9    50 1   
    20    10    51 1   
    21    11    12 1   
    22    11    16 1   
    23    11    17 1   
    24    11    52 1   
    25    12    13 1   
    26    12    53 1   
    27    12    54 1   
    28    13    14 1   
    29    13    55 1   
    30    14    15 1   
    31    14    56 1   
    32    14    57 1   
    33    15    16 1   
    34    15    84 2   
    35    16    20 1   
    36    17    18 1   
    37    17    58 1   
    38    17    59 1   
    39    18    35 1   
    40    19    20 ar  
    41    19    24 ar  
    42    19    60 1   
    43    20    21 ar  
    44    21    22 ar  
    45    21    61 1   
    46    22    23 ar  
    47    22    62 1   
    48    23    24 ar  
    49    23    25 1   
    50    24    63 1   
    51    25    26 1   
    52    26    27 1   
    53    26    64 1   
    54    26    65 1   
    55    27    28 1   
    56    27    66 1   
    57    27    67 1   
    58    28    68 1   
    59    28    69 1   
    60    29    41 1   
    61    29    42 1   
    62    29    70 1   
    63    29    71 1   
    64    30    31 2   
    65    30    35 1   
    66    30    72 1   
    67    31    32 1   
    68    31    73 1   
    69    32    33 1   
    70    32    36 2   
    71    33    34 1   
    72    33    39 1   
    73    33    74 1   
    74    34    35 2   
    75    34    75 1   
    76    36    37 1   
    77    36    76 1   
    78    37    38 2   
    79    37    77 1   
    80    38    39 1   
    81    38    78 1   
    82    39    40 1   
    83    40    41 1   
    84    40    79 1   
    85    40    80 1   
    86    41    81 1   
    87    41    82 1   
    88    42    83 1   
@<TRIPOS>SUBSTRUCTURE
     1 PZ1         1 TEMP              0 ****  ****    0 ROOT
