@<TRIPOS>MOLECULE
PZ2
   41    44     1     0     0
SMALL
No Charge or Current Charge


@<TRIPOS>ATOM
      1 C1          -4.0120    -0.8340    -0.0030 ca         1 PZ2      -0.222900
      2 C2          -3.1510    -1.9420     0.0820 ca         1 PZ2      -0.033000
      3 C3          -3.3280    -2.9330    -0.9080 ca         1 PZ2       0.225900
      4 N4          -4.2770    -2.8120    -1.8800 nb         1 PZ2      -0.278000
      5 N5          -5.0880    -1.7250    -1.9260 nb         1 PZ2      -0.322000
      6 C6          -4.9480    -0.7540    -0.9950 ca         1 PZ2       0.314500
      7 C7          -4.1420     0.3600     0.7910 cc         1 PZ2       0.353900
      8 N8          -5.6010     0.4410    -0.7820 na         1 PZ2      -0.166100
      9 N9          -5.1160     1.1550     0.3250 nd         1 PZ2      -0.484100
     10 C10          0.9510     0.7620     1.0560 ca         1 PZ2       0.144100
     11 C11          0.0630     1.5960     0.3500 ca         1 PZ2      -0.043900
     12 C12         -1.3080     1.5840     0.6580 ca         1 PZ2      -0.050000
     13 C13         -1.8020     0.7420     1.6740 ca         1 PZ2      -0.104300
     14 C14         -0.9080    -0.0780     2.3910 ca         1 PZ2      -0.072000
     15 C15          0.4640    -0.0670     2.0840 ca         1 PZ2      -0.164000
     16 C16          5.1780    -1.5160     0.8380 ca         1 PZ2      -0.057300
     17 C17          4.6030    -2.6890     0.3130 ca         1 PZ2      -0.087000
     18 C18          3.2470    -2.7090    -0.0710 ca         1 PZ2       0.005000
     19 C19          2.4640    -1.5480     0.0730 ca         1 PZ2      -0.115000
     20 C20          3.0340    -0.3760     0.6080 ca         1 PZ2       0.111100
     21 C21          4.3880    -0.3600     0.9770 ca         1 PZ2      -0.103000
     22 C23          2.6670    -3.9090    -0.6130 cg         1 PZ2       0.320000
     23 N24          2.1870    -4.8790    -1.0520 n1         1 PZ2      -0.444000
     24 Br26         0.7020     2.7400    -1.0490 br         1 PZ2      -0.064100
     25 C27         -3.2950     0.7160     1.9850 c3         1 PZ2      -0.036400
     26 H2          -2.3940    -2.0420     0.8550 ha         1 PZ2       0.137000
     27 H3          -2.7110    -3.8290    -0.9290 h4         1 PZ2       0.034100
     28 HN8         -6.3620     0.7950    -1.3560 hn         1 PZ2       0.397000
     29 H12         -1.9880     2.2250     0.1010 ha         1 PZ2       0.139000
     30 H14         -1.2730    -0.7270     3.1840 ha         1 PZ2       0.119000
     31 H15          1.1470    -0.7000     2.6450 ha         1 PZ2       0.131000
     32 H17          5.2110    -3.5850     0.2000 ha         1 PZ2       0.130000
     33 H19          1.4200    -1.5580    -0.2340 ha         1 PZ2       0.140000
     34 H21          4.8220     0.5540     1.3750 ha         1 PZ2       0.136000
     35 H22          7.2800    -1.2250     0.3910 hc         1 PZ2       0.049700
     36 H22A         6.8300    -0.7710     2.0430 hc         1 PZ2       0.049700
     37 H22B         6.9720    -2.4780     1.6060 hc         1 PZ2       0.049700
     38 H27         -3.6020     1.6960     2.3720 hc         1 PZ2       0.071700
     39 H27A        -3.5100     0.0010     2.7870 hc         1 PZ2       0.071700
     40 O25          2.2930     0.7760     0.7480 os         1 PZ2      -0.234200
     41 C22          6.6450    -1.4970     1.2420 c3         1 PZ2      -0.050800
@<TRIPOS>BOND
     1     1     2 ar  
     2     1     6 ar  
     3     1     7 1   
     4     2     3 ar  
     5     2    26 1   
     6     3     4 ar  
     7     3    27 1   
     8     4     5 ar  
     9     5     6 ar  
    10     6     8 1   
    11     7     9 2   
    12     7    25 1   
    13     8     9 1   
    14     8    28 1   
    15    10    11 ar  
    16    10    15 ar  
    17    10    40 1   
    18    11    12 ar  
    19    11    24 1   
    20    12    13 ar  
    21    12    29 1   
    22    13    14 ar  
    23    13    25 1   
    24    14    15 ar  
    25    14    30 1   
    26    15    31 1   
    27    16    17 ar  
    28    16    21 ar  
    29    16    41 1   
    30    17    18 ar  
    31    17    32 1   
    32    18    19 ar  
    33    18    22 1   
    34    19    20 ar  
    35    19    33 1   
    36    20    21 ar  
    37    20    40 1   
    38    21    34 1   
    39    22    23 3   
    40    25    38 1   
    41    25    39 1   
    42    35    41 1   
    43    36    41 1   
    44    37    41 1   
@<TRIPOS>SUBSTRUCTURE
     1 PZ2         1 TEMP              0 ****  ****    0 ROOT
