@<TRIPOS>MOLECULE
PZ2
   41    44     1     0     0
SMALL
abcg2


@<TRIPOS>ATOM
      1 C1          -4.0390    -0.7730     0.0780 ca         1 PZ2      -0.222900
      2 C2          -3.2720    -1.9010    -0.1510 ca         1 PZ2      -0.033000
      3 C3          -3.7140    -2.7190    -1.1790 ca         1 PZ2       0.225900
      4 N4          -4.7970    -2.4780    -1.9270 nb         1 PZ2      -0.278000
      5 N5          -5.5340    -1.4210    -1.7320 nb         1 PZ2      -0.322000
      6 C6          -5.1550    -0.6050    -0.7600 ca         1 PZ2       0.314500
      7 C7          -4.0670     0.3620     0.9420 cc         1 PZ2       0.353900
      8 N8          -5.7470     0.5450    -0.3760 na         1 PZ2      -0.166100
      9 N9          -5.0890     1.1190     0.6350 nd         1 PZ2      -0.484100
     10 C10          0.9820     0.5830     0.7270 ca         1 PZ2       0.144100
     11 C11          0.0450     1.3700     0.0630 ca         1 PZ2      -0.043900
     12 C12         -1.2710     1.4150     0.4920 ca         1 PZ2      -0.050000
     13 C13         -1.6820     0.6610     1.5870 ca         1 PZ2      -0.104300
     14 C14         -0.7420    -0.1230     2.2440 ca         1 PZ2      -0.072000
     15 C15          0.5790    -0.1620     1.8260 ca         1 PZ2      -0.164000
     16 C16          5.1780    -1.4480     1.0160 ca         1 PZ2      -0.057300
     17 C17          4.7480    -2.6800     0.5430 ca         1 PZ2      -0.087000
     18 C18          3.4720    -2.8090    -0.0070 ca         1 PZ2       0.005000
     19 C19          2.6070    -1.7240    -0.0970 ca         1 PZ2      -0.115000
     20 C20          3.0460    -0.5020     0.3900 ca         1 PZ2       0.111100
     21 C21          4.3090    -0.3610     0.9390 ca         1 PZ2      -0.103000
     22 C23          3.0450    -4.0800    -0.4980 cg         1 PZ2       0.320000
     23 N24          2.7030    -5.1060    -0.8940 n1         1 PZ2      -0.444000
     24 BR26         0.5820     2.3860    -1.4260 br         1 PZ2      -0.064100
     25 C27         -3.1200     0.7000     2.0420 c3         1 PZ2      -0.036400
     26 H2          -2.3840    -2.1490     0.4150 ha         1 PZ2       0.137000
     27 H3          -3.1800    -3.6250    -1.4340 h4         1 PZ2       0.034100
     28 HN8         -6.5650     0.9860    -0.7660 hn         1 PZ2       0.397000
     29 H12         -1.9870     2.0340    -0.0350 ha         1 PZ2       0.139000
     30 H14         -1.0380    -0.7130     3.1020 ha         1 PZ2       0.119000
     31 H15          1.2920    -0.7730     2.3650 ha         1 PZ2       0.131000
     32 H17          5.3980    -3.5430     0.5980 ha         1 PZ2       0.130000
     33 H19          1.6240    -1.8370    -0.5350 ha         1 PZ2       0.140000
     34 H21          4.6190     0.6090     1.3100 ha         1 PZ2       0.136000
     35 H22          7.1530    -0.6140     0.9850 hc         1 PZ2       0.049700
     36 H22A         6.4910    -0.8290     2.5960 hc         1 PZ2       0.049700
     37 H22B         7.0680    -2.2270     1.6880 hc         1 PZ2       0.049700
     38 H27         -3.3710     1.6910     2.4280 hc         1 PZ2       0.071700
     39 H27A        -3.2520    -0.0020     2.8680 hc         1 PZ2       0.071700
     40 O25          2.2690     0.6180     0.2900 os         1 PZ2      -0.234200
     41 C22          6.5460    -1.2760     1.6040 c3         1 PZ2      -0.050800
@<TRIPOS>BOND
     1     1     2 ar  
     2     1     6 ar  
     3     1     7 1   
     4     2     3 ar  
     5     2    26 1   
     6     3     4 ar  
     7     3    27 1   
     8     4     5 ar  
     9     5     6 ar  
    10     6     8 1   
    11     7     9 2   
    12     7    25 1   
    13     8     9 1   
    14     8    28 1   
    15    10    11 ar  
    16    10    15 ar  
    17    10    40 1   
    18    11    12 ar  
    19    11    24 1   
    20    12    13 ar  
    21    12    29 1   
    22    13    14 ar  
    23    13    25 1   
    24    14    15 ar  
    25    14    30 1   
    26    15    31 1   
    27    16    17 ar  
    28    16    21 ar  
    29    16    41 1   
    30    17    18 ar  
    31    17    32 1   
    32    18    19 ar  
    33    18    22 1   
    34    19    20 ar  
    35    19    33 1   
    36    20    21 ar  
    37    20    40 1   
    38    21    34 1   
    39    22    23 3   
    40    25    38 1   
    41    25    39 1   
    42    35    41 1   
    43    36    41 1   
    44    37    41 1   
@<TRIPOS>SUBSTRUCTURE
     1 PZ2         1 TEMP              0 ****  ****    0 ROOT
