@<TRIPOS>MOLECULE
PZ3
   93    99     1     0     0
SMALL
abcg2


@<TRIPOS>ATOM
      1 CAA          2.3400     5.7720     1.9290 c3         1 PZ3       0.145900
      2 CAB          1.5970    -3.7020     0.4170 c3         1 PZ3       0.054900
      3 OAC        -10.1710    -0.0180    -2.2290 o          1 PZ3      -0.503100
      4 OAD          6.0130     0.5480    -2.5100 o          1 PZ3      -0.519000
      5 OAE         -2.6110     0.6600     1.9900 o          1 PZ3      -0.543500
      6 OAF         -4.0550     2.1050     0.5590 o          1 PZ3      -0.543500
      7 CAH         10.6400     1.2930     1.0450 ca         1 PZ3      -0.100000
      8 CAI         10.9900     0.0030     0.6720 ca         1 PZ3      -0.113500
      9 CAJ          9.6320     1.9580     0.3570 ca         1 PZ3      -0.113500
     10 CAK         10.3330    -0.6180    -0.3830 ca         1 PZ3      -0.092500
     11 CAL          8.9780     1.3350    -0.6970 ca         1 PZ3      -0.092500
     12 CAM          1.7640    -0.6100    -2.6550 ca         1 PZ3      -0.096500
     13 CAN          2.1120     0.7220    -0.6980 ca         1 PZ3      -0.096500
     14 CAO         -9.6400    -3.0070    -0.2130 cc         1 PZ3      -0.110000
     15 CAP          3.0590    -1.0980    -2.5610 ca         1 PZ3      -0.107500
     16 CAQ          3.4080     0.2430    -0.5920 ca         1 PZ3      -0.107500
     17 CAR         -0.5520     4.7520    -0.0200 ca         1 PZ3      -0.201000
     18 CAS          0.4030     3.7390     1.9570 ca         1 PZ3      -0.201000
     19 CAT         -5.3070    -3.2350     0.5900 ca         1 PZ3      -0.030000
     20 CAU         -1.5150     3.7700    -0.0650 ca         1 PZ3       0.028000
     21 CAV         -0.5730     2.7540     1.9090 ca         1 PZ3       0.028000
     22 CAW         -8.3600    -3.3970     0.2220 cc         1 PZ3      -0.211000
     23 CAX         -3.9400    -3.1110     0.7070 ca         1 PZ3      -0.196000
     24 CAY          0.3860    -1.0740     2.5420 cc         1 PZ3       0.259900
     25 CAZ          2.2610    -1.8130     1.8860 cd         1 PZ3       0.401400
     26 CBA         -5.3530    -1.2770    -0.7700 ca         1 PZ3      -0.014000
     27 CBB          8.5920    -0.6520    -2.2010 c3         1 PZ3       0.163300
     28 CBC         -0.1530     0.7830    -1.7820 c3         1 PZ3      -0.034100
     29 CBE         -3.3740     0.0830    -1.3440 c3         1 PZ3       0.265100
     30 CBF         -1.0760    -1.3590    -0.8000 c3         1 PZ3       0.214800
     31 NBG          1.7310    -0.8910     2.6480 nc         1 PZ3      -0.684000
     32 NBH          7.3090    -1.1830    -1.7910 ns         1 PZ3      -0.494900
     33 OBI          1.3200     5.7300     0.9460 os         1 PZ3      -0.334100
     34 OBK         -8.1560    -1.5320    -0.9640 os         1 PZ3      -0.196000
     35 CBL          6.1600    -0.5140    -1.9480 c          1 PZ3       0.641100
     36 CBM          9.3220     0.0400    -1.0770 ca         1 PZ3      -0.127300
     37 CBN          1.2710     0.3030    -1.7280 ca         1 PZ3      -0.084300
     38 CBO         -9.4720    -1.8580    -0.9360 cd         1 PZ3       0.005500
     39 CBP          0.4200     4.7440     0.9900 ca         1 PZ3       0.196100
     40 CBQ          3.8700    -0.6710    -1.5240 ca         1 PZ3       0.112100
     41 CBR         -6.0490    -2.3210    -0.1580 ca         1 PZ3      -0.196500
     42 CBS         -1.5220     2.7640     0.9010 ca         1 PZ3      -0.330500
     43 CBT         -3.9810    -1.1300    -0.6710 ca         1 PZ3      -0.208300
     44 CBU          0.1010    -2.1200     1.7050 cd         1 PZ3      -0.240300
     45 CBV         -7.4840    -2.4570    -0.2680 cd         1 PZ3       0.250500
     46 CBW         -3.2330    -2.0640     0.0870 ca         1 PZ3       0.377000
     47 CBX         -0.9810     0.1550    -0.6570 c3         1 PZ3       0.213500
     48 NBY         -1.8740    -1.9630     0.2380 nh         1 PZ3      -0.832400
     49 NBZ         -2.3200     0.7430    -0.5920 n3         1 PZ3      -0.752500
     50 NCA          1.3280    -2.5860     1.2950 na         1 PZ3      -0.162500
     51 SCB         -2.7510     1.5070     0.8120 sy         1 PZ3       1.177600
     52 HAA          1.9290     5.8930     2.9330 h1         1 PZ3       0.047033
     53 HAAA         2.9630     4.8750     1.9040 h1         1 PZ3       0.047033
     54 HAAB         2.9560     6.6360     1.6940 h1         1 PZ3       0.047033
     55 HAB          1.1130    -4.6060     0.7800 h1         1 PZ3       0.054367
     56 HABA         1.2540    -3.5030    -0.5970 h1         1 PZ3       0.054367
     57 HABB         2.6690    -3.8720     0.3860 h1         1 PZ3       0.054367
     58 HAG        -11.4650    -1.4030    -1.5080 h4         1 PZ3       0.002200
     59 HAI         11.7750    -0.5220     1.2010 ha         1 PZ3       0.115000
     60 HAJ          9.3580     2.9670     0.6380 ha         1 PZ3       0.115000
     61 HAK         10.6110    -1.6260    -0.6700 ha         1 PZ3       0.118500
     62 HAL          8.1980     1.8640    -1.2310 ha         1 PZ3       0.118500
     63 HAM          1.1270    -0.9530    -3.4620 ha         1 PZ3       0.120500
     64 HAN          1.7500     1.4280     0.0400 ha         1 PZ3       0.120500
     65 HAO        -10.5780    -3.5040    -0.0220 ha         1 PZ3       0.141000
     66 HAP          3.4310    -1.8120    -3.2850 ha         1 PZ3       0.128500
     67 HAQ          4.0460     0.5710     0.2180 ha         1 PZ3       0.128500
     68 HAR         -0.5360     5.5340    -0.7670 ha         1 PZ3       0.129500
     69 HAS          1.1340     3.7000     2.7520 ha         1 PZ3       0.129500
     70 HAT         -5.7950    -4.0670     1.0820 ha         1 PZ3       0.114000
     71 HAU         -2.2500     3.7830    -0.8590 ha         1 PZ3       0.136500
     72 HAV         -0.5730     1.9810     2.6650 ha         1 PZ3       0.136500
     73 HAW         -8.1130    -4.2620     0.8160 ha         1 PZ3       0.143000
     74 HAX         -3.4100    -3.8650     1.2710 ha         1 PZ3       0.114000
     75 HAY         -0.3230    -0.4580     3.0730 h4         1 PZ3       0.057100
     76 HAZ          3.3170    -1.9780     1.7280 h5         1 PZ3       0.056100
     77 HBA         -5.8970    -0.5280    -1.3330 ha         1 PZ3       0.133000
     78 HBB          9.1890    -1.4810    -2.5800 h1         1 PZ3       0.066700
     79 HBBA         8.4330     0.0320    -3.0330 h1         1 PZ3       0.066700
     80 HBC         -0.1920     1.8700    -1.6780 hc         1 PZ3       0.063200
     81 HBCA        -0.5960     0.5400    -2.7520 hc         1 PZ3       0.063200
     82 HBE         -2.9520    -0.1680    -2.3200 h1         1 PZ3       0.072200
     83 HBEA        -4.1630     0.8030    -1.5550 h1         1 PZ3       0.072200
     84 HBF         -1.4590    -1.6360    -1.7860 h1         1 PZ3       0.055200
     85 HBFA        -0.0660    -1.7620    -0.7680 h1         1 PZ3       0.055200
     86 HNBH         7.3030    -2.0340    -1.2500 hn         1 PZ3       0.327500
     87 HBX         -0.4710     0.3540     0.2890 h1         1 PZ3       0.070700
     88 CBD         -1.2090    -2.7050     1.3020 c3         1 PZ3       0.316100
     89 CAG        -10.4320    -1.0290    -1.6080 c          1 PZ3       0.499400
     90 OBJ          5.1340    -1.2060    -1.3940 os         1 PZ3      -0.380200
     91 HAH         11.1510     1.7810     1.8640 ha         1 PZ3       0.114000
     92 HBD         -1.0810    -3.7620     1.0350 h1         1 PZ3       0.054700
     93 HBDA        -1.8540    -2.6840     2.1800 h1         1 PZ3       0.054700
@<TRIPOS>BOND
     1     1    33 1   
     2     1    52 1   
     3     1    53 1   
     4     1    54 1   
     5     2    50 1   
     6     2    55 1   
     7     2    56 1   
     8     2    57 1   
     9     3    89 2   
    10     4    35 2   
    11     5    51 2   
    12     6    51 2   
    13     7     8 ar  
    14     7     9 ar  
    15     7    91 1   
    16     8    10 ar  
    17     8    59 1   
    18     9    11 ar  
    19     9    60 1   
    20    10    36 ar  
    21    10    61 1   
    22    11    36 ar  
    23    11    62 1   
    24    12    15 ar  
    25    12    37 ar  
    26    12    63 1   
    27    13    16 ar  
    28    13    37 ar  
    29    13    64 1   
    30    14    22 1   
    31    14    38 2   
    32    14    65 1   
    33    15    40 ar  
    34    15    66 1   
    35    16    40 ar  
    36    16    67 1   
    37    17    20 ar  
    38    17    39 ar  
    39    17    68 1   
    40    18    21 ar  
    41    18    39 ar  
    42    18    69 1   
    43    19    23 ar  
    44    19    41 ar  
    45    19    70 1   
    46    20    42 ar  
    47    20    71 1   
    48    21    42 ar  
    49    21    72 1   
    50    22    45 2   
    51    22    73 1   
    52    23    46 ar  
    53    23    74 1   
    54    24    31 1   
    55    24    44 2   
    56    24    75 1   
    57    25    31 2   
    58    25    50 1   
    59    25    76 1   
    60    26    41 ar  
    61    26    43 ar  
    62    26    77 1   
    63    27    32 1   
    64    27    36 1   
    65    27    78 1   
    66    27    79 1   
    67    28    37 1   
    68    28    47 1   
    69    28    80 1   
    70    28    81 1   
    71    29    43 1   
    72    29    49 1   
    73    29    82 1   
    74    29    83 1   
    75    30    47 1   
    76    30    48 1   
    77    30    84 1   
    78    30    85 1   
    79    32    35 1   
    80    32    86 1   
    81    33    39 1   
    82    34    38 1   
    83    34    45 1   
    84    35    90 1   
    85    38    89 1   
    86    40    90 1   
    87    41    45 1   
    88    42    51 1   
    89    43    46 ar  
    90    44    50 1   
    91    44    88 1   
    92    46    48 1   
    93    47    49 1   
    94    47    87 1   
    95    48    88 1   
    96    49    51 1   
    97    58    89 1   
    98    88    92 1   
    99    88    93 1   
@<TRIPOS>SUBSTRUCTURE
     1 PZ3         1 TEMP              0 ****  ****    0 ROOT
