@<TRIPOS>MOLECULE
PZ3
   93    99     1     0     0
SMALL
No Charge or Current Charge


@<TRIPOS>ATOM
      1 CAA          3.0550     5.2830     1.2560 c3         1 PZ3       0.145900
      2 CAB          2.1020    -3.0430    -0.0980 c3         1 PZ3       0.054900
      3 OAC        -10.7180    -0.1320    -0.9390 o          1 PZ3      -0.503100
      4 OAD          6.1880     1.3110    -2.0970 o          1 PZ3      -0.519000
      5 OAE         -2.6650     0.6940     1.6030 o          1 PZ3      -0.543500
      6 OAF         -3.9200     2.4150     0.1700 o          1 PZ3      -0.543500
      7 CAH          9.5580     0.4050     2.5450 ca         1 PZ3      -0.100000
      8 CAI          9.9130    -0.7840     1.8850 ca         1 PZ3      -0.113500
      9 CAJ          8.9290     1.4400     1.8330 ca         1 PZ3      -0.113500
     10 CAK          9.6400    -0.9380     0.5150 ca         1 PZ3      -0.092500
     11 CAL          8.6560     1.2870     0.4620 ca         1 PZ3      -0.092500
     12 CAM          1.6520    -0.6160    -3.2240 ca         1 PZ3      -0.096500
     13 CAN          1.9950     0.9430    -1.3880 ca         1 PZ3      -0.096500
     14 CAO         -9.5960    -3.0680     0.9410 cc         1 PZ3      -0.110000
     15 CAP          3.0110    -0.9710    -3.1730 ca         1 PZ3      -0.107500
     16 CAQ          3.3540     0.5900    -1.3390 ca         1 PZ3      -0.107500
     17 CAR         -0.1300     4.5880    -0.5470 ca         1 PZ3      -0.201000
     18 CAS          0.7760     3.4870     1.4210 ca         1 PZ3      -0.201000
     19 CAT         -5.1880    -3.3650     0.8570 ca         1 PZ3      -0.030000
     20 CAU         -1.2380     3.7250    -0.5280 ca         1 PZ3       0.028000
     21 CAV         -0.3290     2.6190     1.4450 ca         1 PZ3       0.028000
     22 CAW         -8.2490    -3.4460     1.1090 cc         1 PZ3      -0.211000
     23 CAX         -3.7990    -3.2620     0.7070 ca         1 PZ3      -0.196000
     24 CAY          0.3420    -0.8770     2.2200 cc         1 PZ3       0.259900
     25 CAZ          2.3510    -1.0650     1.4780 cd         1 PZ3       0.401400
     26 CBA         -5.4610    -1.3540    -0.4550 ca         1 PZ3      -0.014000
     27 CBB          8.7090    -0.0700    -1.6870 c3         1 PZ3       0.163300
     28 CBC         -0.3460     0.6980    -2.3380 c3         1 PZ3      -0.034100
     29 CBE         -3.5780    -0.0710    -1.4890 c3         1 PZ3       0.265100
     30 CBF         -1.1120    -1.4660    -1.2270 c3         1 PZ3       0.214800
     31 NBG          1.6030    -0.3590     2.3170 nc         1 PZ3      -0.684000
     32 NBH          7.3810    -0.6410    -1.8960 ns         1 PZ3      -0.494900
     33 OBI          1.9490     5.3420     0.3380 os         1 PZ3      -0.334100
     34 OBK         -8.2910    -1.5490    -0.1470 os         1 PZ3      -0.196000
     35 CBL          6.2390     0.0910    -2.0590 c          1 PZ3       0.641100
     36 CBM          9.0110     0.0980    -0.2050 ca         1 PZ3      -0.127300
     37 CBN          1.1360     0.3410    -2.3280 ca         1 PZ3      -0.084300
     38 CBO         -9.5770    -1.9270     0.1820 cd         1 PZ3       0.005500
     39 CBP          0.8810     4.4730     0.4180 ca         1 PZ3       0.196100
     40 CBQ          3.8660    -0.3640    -2.2390 ca         1 PZ3       0.112100
     41 CBR         -6.0360    -2.4060     0.2830 ca         1 PZ3      -0.196500
     42 CBS         -1.3320     2.7320     0.4640 ca         1 PZ3      -0.330500
     43 CBT         -4.0620    -1.2380    -0.6170 ca         1 PZ3      -0.208300
     44 CBU          0.2870    -1.9040     1.3210 cd         1 PZ3      -0.240300
     45 CBV         -7.5000    -2.5110     0.4430 cd         1 PZ3       0.250500
     46 CBW         -3.2040    -2.2000    -0.0080 ca         1 PZ3       0.377000
     47 CBX         -1.0970     0.0910    -1.1290 c3         1 PZ3       0.213500
     48 NBY         -1.7820    -2.1560    -0.1020 nh         1 PZ3      -0.832400
     49 NBZ         -2.4430     0.7020    -0.9620 n3         1 PZ3      -0.752500
     50 NCA          1.5900    -2.0430     0.8530 na         1 PZ3      -0.162500
     51 SCB         -2.7310     1.6010     0.4530 sy         1 PZ3       1.177600
     52 HAA          2.7180     5.4530     2.2860 h1         1 PZ3       0.047033
     53 HAAA         3.5530     4.3060     1.2040 h1         1 PZ3       0.047033
     54 HAAB         3.7960     6.0540     1.0090 h1         1 PZ3       0.047033
     55 HAB          1.6130    -4.0090     0.0710 h1         1 PZ3       0.054367
     56 HABA         1.9120    -2.7120    -1.1260 h1         1 PZ3       0.054367
     57 HABB         3.1840    -3.1640     0.0400 h1         1 PZ3       0.054367
     58 HAG        -11.7440    -1.5660     0.0750 h4         1 PZ3       0.002200
     59 HAI         10.3990    -1.5870     2.4360 ha         1 PZ3       0.115000
     60 HAJ          8.6520     2.3600     2.3420 ha         1 PZ3       0.115000
     61 HAK          9.9160    -1.8630     0.0130 ha         1 PZ3       0.118500
     62 HAL          8.1650     2.0920    -0.0810 ha         1 PZ3       0.118500
     63 HAM          0.9990    -1.0960    -3.9500 ha         1 PZ3       0.120500
     64 HAN          1.6070     1.6760    -0.6860 ha         1 PZ3       0.120500
     65 HAO        -10.4640    -3.5870     1.3380 ha         1 PZ3       0.141000
     66 HAP          3.4040    -1.7190    -3.8580 ha         1 PZ3       0.128500
     67 HAQ          4.0000     1.0480    -0.5960 ha         1 PZ3       0.128500
     68 HAR         -0.0520     5.3480    -1.3190 ha         1 PZ3       0.129500
     69 HAS          1.5390     3.3730     2.1850 ha         1 PZ3       0.129500
     70 HAT         -5.5960    -4.2000     1.4210 ha         1 PZ3       0.114000
     71 HAU         -2.0100     3.8180    -1.2910 ha         1 PZ3       0.136500
     72 HAV         -0.3960     1.8640     2.2250 ha         1 PZ3       0.136500
     73 HAW         -7.8960    -4.3100     1.6600 ha         1 PZ3       0.143000
     74 HAX         -3.1870    -4.0410     1.1470 ha         1 PZ3       0.114000
     75 HAY         -0.4640    -0.4740     2.8210 h4         1 PZ3       0.057100
     76 HAZ          3.4120    -0.9440     1.2890 h5         1 PZ3       0.056100
     77 HBA         -6.1100    -0.6140    -0.9210 ha         1 PZ3       0.133000
     78 HBB          9.4550    -0.7340    -2.1450 h1         1 PZ3       0.066700
     79 HBBA         8.7770     0.9010    -2.1960 h1         1 PZ3       0.066700
     80 HBC         -0.4520     1.7880    -2.3180 hc         1 PZ3       0.063200
     81 HBCA        -0.8250     0.3680    -3.2670 hc         1 PZ3       0.063200
     82 HBE         -3.3360    -0.4640    -2.4860 h1         1 PZ3       0.072200
     83 HBEA        -4.4200     0.6150    -1.6580 h1         1 PZ3       0.072200
     84 HBF         -1.5910    -1.7660    -2.1680 h1         1 PZ3       0.055200
     85 HBFA        -0.0800    -1.8200    -1.3150 h1         1 PZ3       0.055200
     86 HNBH         7.2710    -1.6460    -1.8830 hn         1 PZ3       0.327500
     87 HBX         -0.4910     0.3230    -0.2440 h1         1 PZ3       0.070700
     88 CBD         -0.9100    -2.7460     0.9460 c3         1 PZ3       0.316100
     89 CAG        -10.7660    -1.1530    -0.2580 c          1 PZ3       0.499400
     90 OBJ          5.1820    -0.7610    -2.1890 os         1 PZ3      -0.380200
     91 HAH          9.7690     0.5240     3.6060 ha         1 PZ3       0.114000
     92 HBD         -0.5740    -3.7420     0.6280 h1         1 PZ3       0.054700
     93 HBDA        -1.4820    -2.8870     1.8730 h1         1 PZ3       0.054700
@<TRIPOS>BOND
     1     1    33 1   
     2     1    52 1   
     3     1    53 1   
     4     1    54 1   
     5     2    50 1   
     6     2    55 1   
     7     2    56 1   
     8     2    57 1   
     9     3    89 2   
    10     4    35 2   
    11     5    51 2   
    12     6    51 2   
    13     7     8 ar  
    14     7     9 ar  
    15     7    91 1   
    16     8    10 ar  
    17     8    59 1   
    18     9    11 ar  
    19     9    60 1   
    20    10    36 ar  
    21    10    61 1   
    22    11    36 ar  
    23    11    62 1   
    24    12    15 ar  
    25    12    37 ar  
    26    12    63 1   
    27    13    16 ar  
    28    13    37 ar  
    29    13    64 1   
    30    14    22 1   
    31    14    38 2   
    32    14    65 1   
    33    15    40 ar  
    34    15    66 1   
    35    16    40 ar  
    36    16    67 1   
    37    17    20 ar  
    38    17    39 ar  
    39    17    68 1   
    40    18    21 ar  
    41    18    39 ar  
    42    18    69 1   
    43    19    23 ar  
    44    19    41 ar  
    45    19    70 1   
    46    20    42 ar  
    47    20    71 1   
    48    21    42 ar  
    49    21    72 1   
    50    22    45 2   
    51    22    73 1   
    52    23    46 ar  
    53    23    74 1   
    54    24    31 1   
    55    24    44 2   
    56    24    75 1   
    57    25    31 2   
    58    25    50 1   
    59    25    76 1   
    60    26    41 ar  
    61    26    43 ar  
    62    26    77 1   
    63    27    32 1   
    64    27    36 1   
    65    27    78 1   
    66    27    79 1   
    67    28    37 1   
    68    28    47 1   
    69    28    80 1   
    70    28    81 1   
    71    29    43 1   
    72    29    49 1   
    73    29    82 1   
    74    29    83 1   
    75    30    47 1   
    76    30    48 1   
    77    30    84 1   
    78    30    85 1   
    79    32    35 1   
    80    32    86 1   
    81    33    39 1   
    82    34    38 1   
    83    34    45 1   
    84    35    90 1   
    85    38    89 1   
    86    40    90 1   
    87    41    45 1   
    88    42    51 1   
    89    43    46 ar  
    90    44    50 1   
    91    44    88 1   
    92    46    48 1   
    93    47    49 1   
    94    47    87 1   
    95    48    88 1   
    96    49    51 1   
    97    58    89 1   
    98    88    92 1   
    99    88    93 1   
@<TRIPOS>SUBSTRUCTURE
     1 PZ3         1 TEMP              0 ****  ****    0 ROOT
