@<TRIPOS>MOLECULE
PZ4
   27    29     1     0     0
SMALL
bcc


@<TRIPOS>ATOM
      1 C1         -13.7930    -7.4120    25.9600 c3         1 PZ4       0.223100
      2 C3         -11.8470    -6.8970    24.5800 ca         1 PZ4       0.705200
      3 C5          -9.8930    -8.0560    24.8620 ca         1 PZ4       0.795800
      4 C7          -9.9090    -6.4700    23.2540 ca         1 PZ4       0.446200
      5 C8         -11.2040    -6.1760    23.5530 ca         1 PZ4      -0.199700
      6 C11         -7.8840    -9.4770    25.3980 cc         1 PZ4      -0.040100
      7 C15         -9.8490   -11.7300    28.6120 ca         1 PZ4       0.654900
      8 C17        -10.8530   -10.0870    27.3840 ca         1 PZ4       0.497200
      9 C18         -9.6770    -9.9120    26.6650 ca         1 PZ4      -0.288400
     10 N2         -13.1140    -6.6620    24.9310 nu         1 PZ4      -0.869900
     11 N4         -11.1570    -7.8380    25.2190 nb         1 PZ4      -0.790000
     12 N6          -9.2310    -7.4190    23.9070 nb         1 PZ4      -0.743000
     13 F9         -11.8800    -5.2180    22.8960 f          1 PZ4      -0.139900
     14 C10         -9.1840    -9.0930    25.5980 cd         1 PZ4      -0.198000
     15 N12         -7.5480   -10.4720    26.2660 na         1 PZ4      -0.269100
     16 C13         -8.6170   -10.7590    27.0500 ca         1 PZ4       0.440800
     17 N14         -8.6740   -11.6680    28.0100 nb         1 PZ4      -0.714000
     18 N16        -10.9290   -10.9930    28.3500 nb         1 PZ4      -0.731000
     19 H1         -14.8050    -7.0290    26.0440 h1         1 PZ4       0.045367
     20 H2         -13.8450    -8.4750    25.7190 h1         1 PZ4       0.045367
     21 H3         -13.3010    -7.3050    26.9280 h1         1 PZ4       0.045367
     22 H4          -9.3920    -5.9310    22.4670 h4         1 PZ4       0.035100
     23 H6          -9.9460   -12.4600    29.4070 h5         1 PZ4       0.048100
     24 H7         -11.7350    -9.4930    27.1800 h4         1 PZ4       0.040100
     25 H8         -13.6370    -5.9660    24.4280 hn         1 PZ4       0.455800
     26 H9          -6.6470   -10.9220    26.3160 hn         1 PZ4       0.317700
     27 H5          -7.1650    -9.1040    24.6870 h4         1 PZ4       0.187000
@<TRIPOS>BOND
     1     1    10 1   
     2     1    19 1   
     3     1    20 1   
     4     1    21 1   
     5     2     5 ar  
     6     2    10 1   
     7     2    11 ar  
     8     3    11 ar  
     9     3    12 ar  
    10     3    14 1   
    11     4     5 ar  
    12     4    12 ar  
    13     4    22 1   
    14     5    13 1   
    15     6    14 2   
    16     6    15 1   
    17     6    27 1   
    18     7    17 ar  
    19     7    18 ar  
    20     7    23 1   
    21     8     9 ar  
    22     8    18 ar  
    23     8    24 1   
    24     9    14 1   
    25     9    16 ar  
    26    10    25 1   
    27    15    16 1   
    28    15    26 1   
    29    16    17 ar  
@<TRIPOS>SUBSTRUCTURE
     1 PZ4         1 TEMP              0 ****  ****    0 ROOT
