@<TRIPOS>MOLECULE
PZ4
   27    29     1     0     0
SMALL
No Charge or Current Charge


@<TRIPOS>ATOM
      1 C1         -14.0500    -7.7550    25.5900 c3         1 PZ4       0.223100
      2 C3         -11.8300    -6.9310    24.5750 ca         1 PZ4       0.376900
      3 C5          -9.8560    -8.0590    24.9210 ca         1 PZ4       0.269800
      4 C7          -9.7560    -6.1450    23.6440 ca         1 PZ4       0.117900
      5 C8         -11.1400    -5.9730    23.8050 ca         1 PZ4      -0.034000
      6 C11         -8.0220    -9.8150    25.0070 cc         1 PZ4      -0.090100
      7 C15         -9.7290   -11.4250    28.8990 ca         1 PZ4       0.128900
      8 C17        -10.5400    -9.6210    27.7160 ca         1 PZ4       0.168900
      9 C18         -9.5200    -9.8510    26.7750 ca         1 PZ4      -0.157800
     10 N2         -13.2070    -6.8390    24.7950 nu         1 PZ4      -0.925100
     11 N4         -11.1870    -7.9720    25.1330 nb         1 PZ4      -0.264000
     12 N6          -9.1100    -7.1870    24.2050 nb         1 PZ4      -0.217000
     13 F9         -11.7760    -4.9190    23.2370 f          1 PZ4      -0.175000
     14 C10         -9.1330    -9.1820    25.5480 cd         1 PZ4      -0.198000
     15 N12         -7.7330   -10.8600    25.9110 na         1 PZ4      -0.319400
     16 C13         -8.6310   -10.8810    26.9660 ca         1 PZ4       0.112500
     17 N14         -8.7180   -11.6940    28.0360 nb         1 PZ4      -0.188000
     18 N16        -10.6440   -10.4280    28.7950 nb         1 PZ4      -0.205000
     19 H1         -15.0970    -7.4220    25.5800 h1         1 PZ4       0.045367
     20 H2         -14.0070    -8.7730    25.1800 h1         1 PZ4       0.045367
     21 H3         -13.7080    -7.7860    26.6330 h1         1 PZ4       0.045367
     22 H4          -9.1570    -5.4430    23.0650 h4         1 PZ4       0.035100
     23 H6          -9.8130   -12.0750    29.7680 h5         1 PZ4       0.048100
     24 H7         -11.2600    -8.8090    27.6270 h4         1 PZ4       0.040100
     25 H8         -13.6650    -6.0350    24.3580 hn         1 PZ4       0.511000
     26 H9          -6.9700   -11.5220    25.8080 hn         1 PZ4       0.368000
     27 H5          -7.4560    -9.6260    24.0960 h4         1 PZ4       0.237000
@<TRIPOS>BOND
     1     1    10 1   
     2     1    19 1   
     3     1    20 1   
     4     1    21 1   
     5     2     5 ar  
     6     2    10 1   
     7     2    11 ar  
     8     3    11 ar  
     9     3    12 ar  
    10     3    14 1   
    11     4     5 ar  
    12     4    12 ar  
    13     4    22 1   
    14     5    13 1   
    15     6    14 2   
    16     6    15 1   
    17     6    27 1   
    18     7    17 ar  
    19     7    18 ar  
    20     7    23 1   
    21     8     9 ar  
    22     8    18 ar  
    23     8    24 1   
    24     9    14 1   
    25     9    16 ar  
    26    10    25 1   
    27    15    16 1   
    28    15    26 1   
    29    16    17 ar  
@<TRIPOS>SUBSTRUCTURE
     1 PZ4         1 TEMP              0 ****  ****    0 ROOT
