@<TRIPOS>MOLECULE
PZ5
   55    58     1     0     0
SMALL
No Charge or Current Charge


@<TRIPOS>ATOM
      1 C29         -8.1850    -0.6220     1.5380 c1         1 PZ5      -0.216000
      2 C28         -7.3150    -0.5050     0.7040 c1         1 PZ5      -0.167100
      3 C27         -6.2360    -0.3620    -0.2820 c3         1 PZ5       0.013700
      4 C26         -4.8560    -0.1410     0.3780 c3         1 PZ5      -0.073400
      5 C25         -3.7120     0.0110    -0.6490 c3         1 PZ5      -0.077400
      6 C21         -2.3350     0.2270     0.0130 c3         1 PZ5      -0.095400
      7 C20         -1.1900     0.3620    -1.0210 c3         1 PZ5       0.027600
      8 N2           0.1500     0.5720    -0.4090 na         1 PZ5       0.050300
      9 C7           0.9780    -0.5720    -0.1690 cp         1 PZ5       0.120000
     10 C8           0.3840    -1.9460    -0.1730 cp         1 PZ5      -0.136000
     11 C13          0.3730    -2.7290    -1.3530 ca         1 PZ5      -0.081000
     12 C12         -0.1850    -4.0190    -1.3540 ca         1 PZ5      -0.100500
     13 C11         -0.7340    -4.5480    -0.1730 ca         1 PZ5      -0.070000
     14 C10         -0.7210    -3.7880     1.0090 ca         1 PZ5      -0.100500
     15 C9          -0.1630    -2.4980     1.0090 ca         1 PZ5      -0.081000
     16 C14          2.3730    -0.3940     0.0330 ca         1 PZ5      -0.072000
     17 C16          2.9320     0.9110     0.0780 ca         1 PZ5       0.022000
     18 C17          4.3370     1.0300     0.2600 ca         1 PZ5      -0.086000
     19 C18          5.1510    -0.1050     0.4020 ca         1 PZ5      -0.091000
     20 C19          4.5920    -1.3840     0.3750 ca         1 PZ5       0.317000
     21 N3           5.3830    -2.4950     0.5200 nv         1 PZ5      -1.069000
     22 C15          3.2140    -1.5240     0.1930 ca         1 PZ5      -0.159000
     23 C4           2.0730     2.0490    -0.0230 ca         1 PZ5      -0.080000
     24 C6           0.6750     1.8670    -0.2300 ca         1 PZ5       0.041700
     25 C3           2.5650     3.3770     0.1050 ca         1 PZ5      -0.032000
     26 C2           1.7010     4.4800     0.0530 ca         1 PZ5      -0.151000
     27 C1           0.3330     4.2910    -0.1180 ca         1 PZ5       0.374000
     28 N1          -0.5140     5.3620    -0.1540 nv         1 PZ5      -1.073000
     29 C5          -0.1760     3.0020    -0.2560 ca         1 PZ5      -0.239000
     30 H1          -8.9470    -0.7220     2.2860 ha         1 PZ5       0.261000
     31 H2          -6.2050    -1.2620    -0.9090 hc         1 PZ5       0.057700
     32 H3          -6.4680     0.4830    -0.9430 hc         1 PZ5       0.057700
     33 H4          -4.8960     0.7580     1.0070 hc         1 PZ5       0.050200
     34 H5          -4.6330    -0.9870     1.0410 hc         1 PZ5       0.050200
     35 H6          -3.6720    -0.8880    -1.2780 hc         1 PZ5       0.047200
     36 H7          -3.9320     0.8570    -1.3120 hc         1 PZ5       0.047200
     37 H8          -2.3720     1.1240     0.6430 hc         1 PZ5       0.060200
     38 H9          -2.1250    -0.6160     0.6800 hc         1 PZ5       0.060200
     39 H10         -1.1650    -0.5390    -1.6440 h1         1 PZ5       0.089200
     40 H11         -1.4060     1.1870    -1.7110 h1         1 PZ5       0.089200
     41 H12          0.7980    -2.3280    -2.2710 ha         1 PZ5       0.128000
     42 H13         -0.1910    -4.6080    -2.2680 ha         1 PZ5       0.137500
     43 H14         -1.1660    -5.5470    -0.1740 ha         1 PZ5       0.137000
     44 H15         -1.1420    -4.1980     1.9240 ha         1 PZ5       0.137500
     45 H16         -0.1540    -1.9180     1.9300 ha         1 PZ5       0.128000
     46 H17          4.8410     1.9870     0.2940 ha         1 PZ5       0.135000
     47 H18          6.2220     0.0160     0.5410 ha         1 PZ5       0.137000
     48 H19          6.3980    -2.4040     0.5020 hn         1 PZ5       0.476000
     49 H20          4.9960    -3.4220     0.3530 hn         1 PZ5       0.476000
     50 H21          2.8030    -2.5290     0.1730 ha         1 PZ5       0.139000
     51 H22          3.6130     3.5980     0.2630 ha         1 PZ5       0.135000
     52 H23          2.1030     5.4830     0.1590 ha         1 PZ5       0.140000
     53 H24         -0.1720     6.2800     0.1250 hn         1 PZ5       0.486500
     54 H25         -1.5190     5.2100    -0.0960 hn         1 PZ5       0.486500
     55 H26         -1.2480     2.8990    -0.3840 ha         1 PZ5       0.134000
@<TRIPOS>BOND
     1     1     2 3   
     2     1    30 1   
     3     2     3 1   
     4     3     4 1   
     5     3    31 1   
     6     3    32 1   
     7     4     5 1   
     8     4    33 1   
     9     4    34 1   
    10     5     6 1   
    11     5    35 1   
    12     5    36 1   
    13     6     7 1   
    14     6    37 1   
    15     6    38 1   
    16     7     8 1   
    17     7    39 1   
    18     7    40 1   
    19     8     9 1   
    20     8    24 2   
    21     9    10 1   
    22     9    16 ar  
    23    10    11 ar  
    24    10    15 ar  
    25    11    12 ar  
    26    11    41 1   
    27    12    13 ar  
    28    12    42 1   
    29    13    14 ar  
    30    13    43 1   
    31    14    15 ar  
    32    14    44 1   
    33    15    45 1   
    34    16    17 ar  
    35    16    22 ar  
    36    17    18 ar  
    37    17    23 ar  
    38    18    19 ar  
    39    18    46 1   
    40    19    20 ar  
    41    19    47 1   
    42    20    21 1   
    43    20    22 ar  
    44    21    48 1   
    45    21    49 1   
    46    22    50 1   
    47    23    24 ar  
    48    23    25 ar  
    49    24    29 ar  
    50    25    26 ar  
    51    25    51 1   
    52    26    27 ar  
    53    26    52 1   
    54    27    28 1   
    55    27    29 ar  
    56    28    53 1   
    57    28    54 1   
    58    29    55 1   
@<TRIPOS>SUBSTRUCTURE
     1 PZ5         1 TEMP              0 ****  ****    0 ROOT
