@<TRIPOS>MOLECULE
PZ5
   55    58     1     0     0
SMALL
abcg2


@<TRIPOS>ATOM
      1 C29         -7.9020    -0.1270     2.1140 c1         1 PZ5      -0.216000
      2 C28         -7.0840    -0.1960     1.2340 c1         1 PZ5      -0.167100
      3 C27         -6.0720    -0.2690     0.1880 c3         1 PZ5       0.013700
      4 C26         -4.6700     0.0660     0.7030 c3         1 PZ5      -0.073400
      5 C25         -3.6290    -0.0010    -0.4060 c3         1 PZ5      -0.077400
      6 C21         -2.2250     0.2930     0.1070 c3         1 PZ5      -0.095400
      7 C20         -1.2180     0.2180    -1.0310 c3         1 PZ5       0.027600
      8 N2           0.1710     0.4440    -0.5830 na         1 PZ5       0.050300
      9 C7           0.9560    -0.5990    -0.3430 cp         1 PZ5       0.120000
     10 C8           0.4260    -1.9680    -0.5450 cp         1 PZ5      -0.136000
     11 C13          0.5910    -2.6010    -1.7740 ca         1 PZ5      -0.081000
     12 C12          0.1200    -3.8940    -1.9490 ca         1 PZ5      -0.100500
     13 C11         -0.5050    -4.5560    -0.9000 ca         1 PZ5      -0.070000
     14 C10         -0.6550    -3.9280     0.3280 ca         1 PZ5      -0.100500
     15 C9          -0.1860    -2.6340     0.5110 ca         1 PZ5      -0.081000
     16 C14          2.2900    -0.4360     0.1010 ca         1 PZ5      -0.072000
     17 C16          2.7860     0.8720     0.2870 ca         1 PZ5       0.022000
     18 C17          4.1200     1.0010     0.7230 ca         1 PZ5      -0.086000
     19 C18          4.8960    -0.0970     0.9600 ca         1 PZ5      -0.091000
     20 C19          4.4040    -1.4150     0.7780 ca         1 PZ5       0.317000
     21 N3           5.2020    -2.4830     1.0790 nv         1 PZ5      -1.069000
     22 C15          3.1020    -1.5630     0.3460 ca         1 PZ5      -0.159000
     23 C4           1.9260     1.9790     0.0300 ca         1 PZ5      -0.080000
     24 C6           0.6030     1.7590    -0.4010 ca         1 PZ5       0.041700
     25 C3           2.3370     3.3190     0.1910 ca         1 PZ5      -0.032000
     26 C2           1.5020     4.3670    -0.0530 ca         1 PZ5      -0.151000
     27 C1           0.1720     4.1430    -0.4780 ca         1 PZ5       0.374000
     28 N1          -0.6400     5.1960    -0.7540 nv         1 PZ5      -1.073000
     29 C5          -0.2600     2.8330    -0.6430 ca         1 PZ5      -0.239000
     30 H1          -8.6300    -0.0630     2.8890 ha         1 PZ5       0.261000
     31 H2          -6.0770    -1.2720    -0.2470 hc         1 PZ5       0.057700
     32 H3          -6.3450     0.4160    -0.6200 hc         1 PZ5       0.057700
     33 H4          -4.6760     1.0640     1.1460 hc         1 PZ5       0.050200
     34 H5          -4.4040    -0.6310     1.5020 hc         1 PZ5       0.050200
     35 H6          -3.6470    -0.9930    -0.8680 hc         1 PZ5       0.047200
     36 H7          -3.8900     0.7110    -1.1960 hc         1 PZ5       0.047200
     37 H8          -2.2030     1.2760     0.5850 hc         1 PZ5       0.060200
     38 H9          -1.9600    -0.4340     0.8790 hc         1 PZ5       0.060200
     39 H10         -1.2630    -0.7570    -1.5020 h1         1 PZ5       0.089200
     40 H11         -1.4360     0.9370    -1.8170 h1         1 PZ5       0.089200
     41 H12          1.0790    -2.0840    -2.5900 ha         1 PZ5       0.128000
     42 H13          0.2450    -4.3830    -2.9050 ha         1 PZ5       0.137500
     43 H14         -0.8710    -5.5640    -1.0410 ha         1 PZ5       0.137000
     44 H15         -1.1350    -4.4430     1.1490 ha         1 PZ5       0.137500
     45 H16         -0.2890    -2.1510     1.4740 ha         1 PZ5       0.128000
     46 H17          4.5560     1.9760     0.8820 ha         1 PZ5       0.135000
     47 H18          5.9160     0.0420     1.2970 ha         1 PZ5       0.137000
     48 H19          6.1970    -2.3340     1.0460 hn         1 PZ5       0.476000
     49 H20          4.9250    -3.3780     0.7090 hn         1 PZ5       0.476000
     50 H21          2.7040    -2.5570     0.1920 ha         1 PZ5       0.139000
     51 H22          3.3430     3.5360     0.5190 ha         1 PZ5       0.135000
     52 H23          1.8560     5.3810     0.0820 ha         1 PZ5       0.140000
     53 H24         -0.3890     6.0960    -0.3820 hn         1 PZ5       0.486500
     54 H25         -1.6320     5.0350    -0.8090 hn         1 PZ5       0.486500
     55 H26         -1.2800     2.6800    -0.9570 ha         1 PZ5       0.134000
@<TRIPOS>BOND
     1     1     2 3   
     2     1    30 1   
     3     2     3 1   
     4     3     4 1   
     5     3    31 1   
     6     3    32 1   
     7     4     5 1   
     8     4    33 1   
     9     4    34 1   
    10     5     6 1   
    11     5    35 1   
    12     5    36 1   
    13     6     7 1   
    14     6    37 1   
    15     6    38 1   
    16     7     8 1   
    17     7    39 1   
    18     7    40 1   
    19     8     9 1   
    20     8    24 2   
    21     9    10 1   
    22     9    16 ar  
    23    10    11 ar  
    24    10    15 ar  
    25    11    12 ar  
    26    11    41 1   
    27    12    13 ar  
    28    12    42 1   
    29    13    14 ar  
    30    13    43 1   
    31    14    15 ar  
    32    14    44 1   
    33    15    45 1   
    34    16    17 ar  
    35    16    22 ar  
    36    17    18 ar  
    37    17    23 ar  
    38    18    19 ar  
    39    18    46 1   
    40    19    20 ar  
    41    19    47 1   
    42    20    21 1   
    43    20    22 ar  
    44    21    48 1   
    45    21    49 1   
    46    22    50 1   
    47    23    24 ar  
    48    23    25 ar  
    49    24    29 ar  
    50    25    26 ar  
    51    25    51 1   
    52    26    27 ar  
    53    26    52 1   
    54    27    28 1   
    55    27    29 ar  
    56    28    53 1   
    57    28    54 1   
    58    29    55 1   
@<TRIPOS>SUBSTRUCTURE
     1 PZ5         1 TEMP              0 ****  ****    0 ROOT
