@<TRIPOS>MOLECULE
PZ6
   44    47     1     0     0
SMALL
No Charge or Current Charge


@<TRIPOS>ATOM
      1 N1           6.6110    -0.4950    21.0750 ns         1 PZ6      -0.146000
      2 C4           8.2560    -1.0970    25.3760 ca         1 PZ6       0.146100
      3 C5           7.9060    -1.1140    26.7360 ca         1 PZ6      -0.139000
      4 C6           6.8130    -1.8710    27.1810 ca         1 PZ6      -0.063000
      5 C7           6.0720    -2.6190    26.2580 ca         1 PZ6       0.077000
      6 C8           6.4060    -2.5970    24.8940 ca         1 PZ6      -0.068000
      7 C10          6.5800    -1.5720    21.9600 c          1 PZ6       0.621100
      8 C13          3.9000     0.7430    18.1190 ca         1 PZ6       0.336900
      9 C15          4.9150     2.9640    18.0340 ca         1 PZ6      -0.082000
     10 C17          6.7970     3.4880    19.4830 ca         1 PZ6      -0.091000
     11 O1           5.6010    -2.3070    22.0140 o          1 PZ6      -0.570100
     12 C1           7.8560    -1.7650    22.8840 c6         1 PZ6      -0.064700
     13 C9           7.4920    -1.8180    24.4130 ca         1 PZ6      -0.167300
     14 O            9.3590    -0.3510    25.0260 os         1 PZ6      -0.344100
     15 C3           9.9720    -0.5640    23.7480 c6         1 PZ6       0.159600
     16 C2           8.8860    -0.5930    22.6620 c6         1 PZ6      -0.113400
     17 C            8.5580    -3.1000    22.4300 c3         1 PZ6       0.170800
     18 N            7.8560    -4.3620    22.7470 n8         1 PZ6      -1.003200
     19 C11          5.6890    -0.0540    20.0790 ca         1 PZ6      -0.061000
     20 C19          5.7830     1.2650    19.5670 ca         1 PZ6      -0.036000
     21 C18          6.7510     2.1910    20.0220 ca         1 PZ6      -0.108000
     22 C16          5.8810     3.8750    18.4910 ca         1 PZ6      -0.109000
     23 C14          4.8650     1.6630    18.5700 ca         1 PZ6      -0.081000
     24 N2           3.8080    -0.5200    18.5900 nb         1 PZ6      -0.641000
     25 C12          4.6860    -0.9030    19.5470 ca         1 PZ6       0.303900
     26 H1           7.4470     0.0700    21.1350 hn         1 PZ6       0.160000
     27 H2           8.4950    -0.5440    27.4490 ha         1 PZ6       0.137000
     28 H3           6.5490    -1.8870    28.2360 ha         1 PZ6       0.135000
     29 H4           5.8070    -3.2060    24.2250 ha         1 PZ6       0.154000
     30 H5           3.1790     1.0230    17.3510 h4         1 PZ6       0.020100
     31 H6           4.2070     3.2700    17.2660 ha         1 PZ6       0.118000
     32 H7           7.5430     4.1960    19.8370 ha         1 PZ6       0.117000
     33 H8          10.5390    -1.5050    23.7720 h1         1 PZ6       0.062200
     34 H9          10.6830     0.2520    23.5560 h1         1 PZ6       0.062200
     35 H10          9.3570    -0.6600    21.6710 hc         1 PZ6       0.072200
     36 H11          8.3800     0.3810    22.7100 hc         1 PZ6       0.072200
     37 H12          8.7240    -3.0610    21.3440 h1         1 PZ6       0.044200
     38 H13          9.5450    -3.1640    22.9070 h1         1 PZ6       0.044200
     39 H14          8.4580    -5.1550    22.4940 hn         1 PZ6       0.402500
     40 H15          7.7710    -4.4390    23.7670 hn         1 PZ6       0.402500
     41 H17          7.4700     1.9250    20.7910 ha         1 PZ6       0.114000
     42 H18          5.9200     4.8800    18.0770 ha         1 PZ6       0.117000
     43 H19          4.5840    -1.9370    19.8680 h4         1 PZ6       0.045100
     44 Cl           4.7140    -3.5910    26.8110 cl         1 PZ6      -0.203000
@<TRIPOS>BOND
     1     1     7 1   
     2     1    19 1   
     3     1    26 1   
     4     2     3 ar  
     5     2    13 ar  
     6     2    14 1   
     7     3     4 ar  
     8     3    27 1   
     9     4     5 ar  
    10     4    28 1   
    11     5     6 ar  
    12     5    44 1   
    13     6    13 ar  
    14     6    29 1   
    15     7    11 2   
    16     7    12 1   
    17     8    23 ar  
    18     8    24 ar  
    19     8    30 1   
    20     9    22 ar  
    21     9    23 ar  
    22     9    31 1   
    23    10    21 ar  
    24    10    22 ar  
    25    10    32 1   
    26    12    13 1   
    27    12    16 1   
    28    12    17 1   
    29    14    15 1   
    30    15    16 1   
    31    15    33 1   
    32    15    34 1   
    33    16    35 1   
    34    16    36 1   
    35    17    18 1   
    36    17    37 1   
    37    17    38 1   
    38    18    39 1   
    39    18    40 1   
    40    19    20 ar  
    41    19    25 ar  
    42    20    21 ar  
    43    20    23 ar  
    44    21    41 1   
    45    22    42 1   
    46    24    25 ar  
    47    25    43 1   
@<TRIPOS>SUBSTRUCTURE
     1 PZ6         1 TEMP              0 ****  ****    0 ROOT
