@<TRIPOS>MOLECULE
PZ6
   44    47     1     0     0
SMALL
abcg2


@<TRIPOS>ATOM
      1 N1           6.9910    -0.7430    21.0910 ns         1 PZ6      -0.146000
      2 C4           8.9600    -0.6220    24.3250 ca         1 PZ6       0.146100
      3 C5           8.6560     0.2980    25.3320 ca         1 PZ6      -0.139000
      4 C6           7.3460     0.5260    25.7120 ca         1 PZ6      -0.063000
      5 C7           6.3340    -0.1840    25.0780 ca         1 PZ6       0.077000
      6 C8           6.6200    -1.0940    24.0770 ca         1 PZ6      -0.068000
      7 C10          7.3910    -2.0340    21.2670 c          1 PZ6       0.621100
      8 C13          4.8590     0.8840    17.9300 ca         1 PZ6       0.336900
      9 C15          3.9530     2.6720    19.3770 ca         1 PZ6      -0.082000
     10 C17          4.5390     2.6920    21.7130 ca         1 PZ6      -0.091000
     11 O1           7.1760    -2.9200    20.4540 o          1 PZ6      -0.570100
     12 C1           8.2450    -2.2890    22.5310 c6         1 PZ6      -0.064700
     13 C9           7.9390    -1.3260    23.6690 ca         1 PZ6      -0.167300
     14 O           10.2780    -0.7550    24.0230 os         1 PZ6      -0.344100
     15 C3          10.6410    -1.9080    23.2470 c6         1 PZ6       0.159600
     16 C2           9.7100    -2.0850    22.0690 c6         1 PZ6      -0.113400
     17 C            8.0630    -3.7610    22.9660 c3         1 PZ6       0.170800
     18 N            6.7160    -4.0590    23.4570 n8         1 PZ6      -1.003200
     19 C11          6.2500    -0.1970    20.0340 ca         1 PZ6      -0.061000
     20 C19          5.4550     0.9610    20.2930 ca         1 PZ6      -0.036000
     21 C18          5.3220     1.5740    21.5610 ca         1 PZ6      -0.108000
     22 C16          3.8520     3.2520    20.6150 ca         1 PZ6      -0.109000
     23 C14          4.7490     1.5180    19.1910 ca         1 PZ6      -0.081000
     24 N2           5.5840    -0.1880    17.7190 nb         1 PZ6      -0.641000
     25 C12          6.2760    -0.7190    18.7580 ca         1 PZ6       0.303900
     26 H1           7.2050    -0.1140    21.8490 hn         1 PZ6       0.160000
     27 H2           9.4680     0.8320    25.8080 ha         1 PZ6       0.137000
     28 H3           7.1150     1.2430    26.4870 ha         1 PZ6       0.135000
     29 H4           5.8130    -1.6150    23.5830 ha         1 PZ6       0.154000
     30 H5           4.3190     1.3000    17.0850 h4         1 PZ6       0.020100
     31 H6           3.4250     3.0830    18.5250 ha         1 PZ6       0.118000
     32 H7           4.4430     3.1460    22.6910 ha         1 PZ6       0.117000
     33 H8          10.6340    -2.7810    23.9040 h1         1 PZ6       0.062200
     34 H9          11.6610    -1.7260    22.9180 h1         1 PZ6       0.062200
     35 H10         10.0280    -2.9420    21.4740 hc         1 PZ6       0.072200
     36 H11          9.7810    -1.1980    21.4340 hc         1 PZ6       0.072200
     37 H12          8.2450    -4.3770    22.0870 h1         1 PZ6       0.044200
     38 H13          8.8410    -3.9920    23.7000 h1         1 PZ6       0.044200
     39 H14          6.5770    -5.0630    23.4560 hn         1 PZ6       0.402500
     40 H15          6.6140    -3.7590    24.4200 hn         1 PZ6       0.402500
     41 H17          5.8170     1.1670    22.4310 ha         1 PZ6       0.114000
     42 H18          3.2430     4.1350    20.7580 ha         1 PZ6       0.117000
     43 H19          6.8710    -1.5930    18.5440 h4         1 PZ6       0.045100
     44 CL           4.6640     0.0980    25.5310 cl         1 PZ6      -0.203000
@<TRIPOS>BOND
     1     1     7 1   
     2     1    19 1   
     3     1    26 1   
     4     2     3 ar  
     5     2    13 ar  
     6     2    14 1   
     7     3     4 ar  
     8     3    27 1   
     9     4     5 ar  
    10     4    28 1   
    11     5     6 ar  
    12     5    44 1   
    13     6    13 ar  
    14     6    29 1   
    15     7    11 2   
    16     7    12 1   
    17     8    23 ar  
    18     8    24 ar  
    19     8    30 1   
    20     9    22 ar  
    21     9    23 ar  
    22     9    31 1   
    23    10    21 ar  
    24    10    22 ar  
    25    10    32 1   
    26    12    13 1   
    27    12    16 1   
    28    12    17 1   
    29    14    15 1   
    30    15    16 1   
    31    15    33 1   
    32    15    34 1   
    33    16    35 1   
    34    16    36 1   
    35    17    18 1   
    36    17    37 1   
    37    17    38 1   
    38    18    39 1   
    39    18    40 1   
    40    19    20 ar  
    41    19    25 ar  
    42    20    21 ar  
    43    20    23 ar  
    44    21    41 1   
    45    22    42 1   
    46    24    25 ar  
    47    25    43 1   
@<TRIPOS>SUBSTRUCTURE
     1 PZ6         1 TEMP              0 ****  ****    0 ROOT
