@<TRIPOS>MOLECULE
PZ7
   89    94     1     0     0
SMALL
abcg2


@<TRIPOS>ATOM
      1 C35         -7.7270    12.1580    30.9840 cc         1 PZ7       0.508400
      2 C33         -6.0870    13.5160    30.3430 cd         1 PZ7       0.272500
      3 C31         -4.3690    13.2570    28.5300 c5         1 PZ7       0.261300
      4 O30         -2.9880    13.4270    28.6490 os         1 PZ7      -0.426000
      5 C29         -2.4470    14.0720    27.4970 c5         1 PZ7       0.110300
      6 C28         -1.3620    15.0400    27.9010 c3         1 PZ7       0.245600
      7 O26          1.0580    16.5010    28.4480 o          1 PZ7      -0.846500
      8 O24          2.1060    14.1420    28.3070 os         1 PZ7      -0.714800
      9 C20          3.5880    11.6550    29.6260 c3         1 PZ7       0.218600
     10 C19          3.8470    10.9070    30.9160 c5         1 PZ7       0.154300
     11 C17          2.0410    10.3860    32.2740 c5         1 PZ7       0.281300
     12 C15          0.3700    12.0970    31.6780 ca         1 PZ7       0.010200
     13 C13         -1.9000    11.9250    32.4350 ca         1 PZ7       0.008700
     14 C01         -3.2710    13.7000    33.4690 c3         1 PZ7      -0.110100
     15 C02         -3.2880    12.5110    32.5100 c3         1 PZ7       0.162000
     16 C07         -6.1320     8.8820    31.0860 c3         1 PZ7       0.051000
     17 C08         -5.6390     7.4800    31.3750 c3         1 PZ7       0.275000
     18 C14         -0.9140    12.5800    31.7040 ca         1 PZ7      -0.115000
     19 C37         -8.9290    12.8710    33.0410 cc         1 PZ7      -0.284100
     20 C38         -8.7550    13.9760    33.8170 cd         1 PZ7      -0.036400
     21 C40         -7.3060    14.1780    32.2760 cc         1 PZ7      -0.001000
     22 C41         -6.2830    14.4520    31.3420 cc         1 PZ7       0.063400
     23 C43         -4.6440    15.1420    30.2060 cd         1 PZ7       0.419700
     24 C44         -4.7710    13.7560    27.1320 c5         1 PZ7       0.132300
     25 C46         -3.6550    14.7540    26.8400 c5         1 PZ7       0.146300
     26 C50          3.5980     9.4120    30.7970 c5         1 PZ7       0.112300
     27 C52          2.1150     9.3280    31.1690 c5         1 PZ7       0.070300
     28 C54         -0.2420    10.3280    33.0730 ca         1 PZ7      -0.040500
     29 C55         -1.5360    10.7770    33.1300 ca         1 PZ7      -0.115000
     30 F09         -4.3030     7.4020    31.3770 f          1 PZ7      -0.115667
     31 F10         -6.0900     6.6100    30.4610 f          1 PZ7      -0.115667
     32 F11         -6.0530     7.0420    32.5720 f          1 PZ7      -0.115667
     33 N03         -4.2970    11.5170    32.8340 n          1 PZ7      -0.430800
     34 N06         -5.6710     9.8160    32.0690 ns         1 PZ7      -0.525900
     35 N16          0.6830    10.9820    32.3530 na         1 PZ7       0.029300
     36 N32         -5.0220    13.9730    29.6180 na         1 PZ7      -0.257300
     37 N34         -6.7910    12.3890    30.1280 nd         1 PZ7      -0.650000
     38 N36         -7.9940    12.9910    32.0340 na         1 PZ7      -0.121400
     39 N39         -7.7550    14.7810    33.3440 nd         1 PZ7      -0.262600
     40 N42         -5.3780    15.4620    31.2390 nc         1 PZ7      -0.536100
     41 O12         -3.9750    10.6050    30.7870 o          1 PZ7      -0.614100
     42 O18          2.9690    11.3550    31.9680 os         1 PZ7      -0.397000
     43 O21          3.7910    13.0260    29.8630 os         1 PZ7      -0.574400
     44 O23          4.3400    13.4380    27.4010 o          1 PZ7      -0.822000
     45 O27         -0.3140    14.3310    28.5190 os         1 PZ7      -0.601400
     46 O45         -4.6890    12.7210    26.1940 oh         1 PZ7      -0.674000
     47 O47         -3.5220    14.9990    25.4740 oh         1 PZ7      -0.688000
     48 O48          1.1140    14.9470    30.5390 o          1 PZ7      -0.846500
     49 O49          4.1990    15.3900    29.1450 o          1 PZ7      -0.822000
     50 O51          4.3920     8.7510    31.7440 oh         1 PZ7      -0.705000
     51 O53          1.6910     8.0950    31.6610 oh         1 PZ7      -0.724000
     52 P22          3.7270    14.0830    28.6020 p5         1 PZ7       1.444800
     53 P25          1.0250    15.1340    29.0540 p5         1 PZ7       1.462800
     54 H1          -8.3500    11.2780    30.9010 h5         1 PZ7       0.045100
     55 H2          -4.6430    12.2070    28.6620 h2         1 PZ7       0.105700
     56 H3          -2.0330    13.3190    26.8150 h1         1 PZ7       0.098700
     57 H4          -1.0220    15.5590    26.9980 h1         1 PZ7       0.023700
     58 H5          -1.7840    15.8030    28.5670 h1         1 PZ7       0.023700
     59 H6           2.5720    11.4590    29.2580 h1         1 PZ7       0.028200
     60 H7           4.2830    11.2690    28.8730 h1         1 PZ7       0.028200
     61 H8           4.8710    11.1060    31.2440 h1         1 PZ7       0.118700
     62 H9           2.2240     9.9440    33.2600 h2         1 PZ7       0.093700
     63 H10          1.1530    12.6130    31.1420 h4         1 PZ7       0.213000
     64 H12         -4.2670    14.1270    33.5760 hc         1 PZ7       0.063033
     65 H13         -2.8880    13.4380    34.4550 hc         1 PZ7       0.063033
     66 H14         -3.5090    12.9090    31.5180 h1         1 PZ7       0.102700
     67 H15         -4.4210    12.0670    34.8490 h1         1 PZ7       0.043033
     68 H16         -5.9860    11.8690    34.0740 h1         1 PZ7       0.043033
     69 H17         -4.9970    10.4590    34.5120 h1         1 PZ7       0.043033
     70 H18         -5.8030     9.1770    30.0900 h1         1 PZ7       0.089700
     71 H19         -7.2230     8.8660    31.0790 h1         1 PZ7       0.089700
     72 H20         -1.1290    13.4810    31.1460 ha         1 PZ7       0.176000
     73 H21         -9.6040    12.0350    33.1020 h4         1 PZ7       0.226000
     74 H22         -9.3070    14.2330    34.7080 h4         1 PZ7       0.226000
     75 H23         -3.8120    15.7260    29.8490 h5         1 PZ7       0.096800
     76 H24         -5.7620    14.2230    27.1480 h1         1 PZ7       0.056700
     77 H25         -3.8810    15.6790    27.3900 h1         1 PZ7       0.036700
     78 H26          3.7800     9.0470    29.7780 h1         1 PZ7       0.074700
     79 H27          1.5130     9.6570    30.3130 h1         1 PZ7       0.079700
     80 H28          0.0860     9.4460    33.6040 h4         1 PZ7       0.213000
     81 H29         -2.2480    10.2220    33.7240 ha         1 PZ7       0.176000
     82 H30         -6.2600     9.9480    32.8740 hn         1 PZ7       0.321500
     83 H31         -5.4150    12.1070    26.3480 ho         1 PZ7       0.498000
     84 H32         -3.0080    15.8040    25.3560 ho         1 PZ7       0.519000
     85 H35          4.0560     7.8530    31.8460 ho         1 PZ7       0.509000
     86 H36          1.3380     7.5670    30.9370 ho         1 PZ7       0.526000
     87 C04         -4.9660    11.4770    34.1210 c3         1 PZ7       0.087300
     88 C05         -4.6120    10.6420    31.8340 c          1 PZ7       0.651100
     89 H11         -2.6230    14.4740    33.0600 hc         1 PZ7       0.063033
@<TRIPOS>BOND
     1     1    37 2   
     2     1    38 1   
     3     1    54 1   
     4     2    22 2   
     5     2    36 1   
     6     2    37 1   
     7     3     4 1   
     8     3    24 1   
     9     3    36 1   
    10     3    55 1   
    11     4     5 1   
    12     5     6 1   
    13     5    25 1   
    14     5    56 1   
    15     6    45 1   
    16     6    57 1   
    17     6    58 1   
    18     7    53 1   
    19     8    52 1   
    20     8    53 1   
    21     9    10 1   
    22     9    43 1   
    23     9    59 1   
    24     9    60 1   
    25    10    26 1   
    26    10    42 1   
    27    10    61 1   
    28    11    27 1   
    29    11    35 1   
    30    11    42 1   
    31    11    62 1   
    32    12    18 ar  
    33    12    35 2   
    34    12    63 1   
    35    13    15 1   
    36    13    18 ar  
    37    13    29 ar  
    38    14    15 1   
    39    14    64 1   
    40    14    65 1   
    41    14    89 1   
    42    15    33 1   
    43    15    66 1   
    44    16    17 1   
    45    16    34 1   
    46    16    70 1   
    47    16    71 1   
    48    17    30 1   
    49    17    31 1   
    50    17    32 1   
    51    18    72 1   
    52    19    20 2   
    53    19    38 1   
    54    19    73 1   
    55    20    39 1   
    56    20    74 1   
    57    21    22 1   
    58    21    38 1   
    59    21    39 2   
    60    22    40 1   
    61    23    36 1   
    62    23    40 2   
    63    23    75 1   
    64    24    25 1   
    65    24    46 1   
    66    24    76 1   
    67    25    47 1   
    68    25    77 1   
    69    26    27 1   
    70    26    50 1   
    71    26    78 1   
    72    27    51 1   
    73    27    79 1   
    74    28    29 ar  
    75    28    35 1   
    76    28    80 1   
    77    29    81 1   
    78    33    87 1   
    79    33    88 1   
    80    34    82 1   
    81    34    88 1   
    82    41    88 2   
    83    43    52 1   
    84    44    52 1   
    85    45    53 1   
    86    46    83 1   
    87    47    84 1   
    88    48    53 1   
    89    49    52 1   
    90    50    85 1   
    91    51    86 1   
    92    67    87 1   
    93    68    87 1   
    94    69    87 1   
@<TRIPOS>SUBSTRUCTURE
     1 PZ7         1 TEMP              0 ****  ****    0 ROOT
