@<TRIPOS>MOLECULE
PZ7
   89    94     1     0     0
SMALL
No Charge or Current Charge


@<TRIPOS>ATOM
      1 C35         -7.3590    11.5010    29.6110 cc         1 PZ7       0.508400
      2 C33         -5.9320    13.3200    29.9390 cd         1 PZ7       0.272500
      3 C31         -3.8440    14.1260    28.7660 c5         1 PZ7       0.261300
      4 O30         -2.5830    14.4430    29.4050 os         1 PZ7      -0.426000
      5 C29         -1.8460    15.3410    28.5450 c5         1 PZ7       0.110300
      6 C28         -0.7760    16.1250    29.3630 c3         1 PZ7       0.245600
      7 O26          1.2620    15.6950    27.2940 o          1 PZ7      -0.846500
      8 O24          0.6890    13.3910    28.2930 os         1 PZ7      -0.714800
      9 C20          2.0000    10.5700    29.1230 c3         1 PZ7       0.218600
     10 C19          3.1220    10.1850    30.1350 c5         1 PZ7       0.154300
     11 C17          2.1540    10.3500    32.2940 c5         1 PZ7       0.281300
     12 C15          0.6250    12.3220    31.8540 ca         1 PZ7       0.010200
     13 C13         -1.6420    12.3580    32.7510 ca         1 PZ7       0.008700
     14 C01         -3.0650    14.1790    33.7380 c3         1 PZ7      -0.110100
     15 C02         -3.0430    12.9700    32.7730 c3         1 PZ7       0.162000
     16 C07         -5.6870     8.9530    31.3020 c3         1 PZ7       0.051000
     17 C08         -4.9530     7.6550    31.7190 c3         1 PZ7       0.275000
     18 C14         -0.6580    12.8920    31.9030 ca         1 PZ7      -0.115000
     19 C37         -9.1030    11.2270    31.3250 cc         1 PZ7      -0.284100
     20 C38         -9.3940    12.0090    32.4310 cd         1 PZ7      -0.036400
     21 C40         -7.6960    12.9760    31.5120 cc         1 PZ7      -0.001000
     22 C41         -6.5950    13.7330    31.0540 cc         1 PZ7       0.063400
     23 C43         -5.0310    15.1510    30.7880 cd         1 PZ7       0.419700
     24 C44         -3.9930    15.1170    27.5510 c5         1 PZ7       0.132300
     25 C46         -2.9840    16.2280    27.9670 c5         1 PZ7       0.146300
     26 C50          3.0210     8.7310    30.6900 c5         1 PZ7       0.112300
     27 C52          1.8740     8.9080    31.7280 c5         1 PZ7       0.070300
     28 C54         -0.0020    10.7230    33.5050 ca         1 PZ7      -0.040500
     29 C55         -1.2910    11.2820    33.5840 ca         1 PZ7      -0.115000
     30 F09         -3.6100     7.7950    31.6390 f          1 PZ7      -0.115667
     31 F10         -5.3110     6.6290    30.9150 f          1 PZ7      -0.115667
     32 F11         -5.2610     7.3130    32.9920 f          1 PZ7      -0.115667
     33 N03         -4.1320    11.9610    32.9590 n          1 PZ7      -0.430800
     34 N06         -5.3790    10.1170    32.1570 ns         1 PZ7      -0.525900
     35 N16          0.9480    11.1520    32.5640 na         1 PZ7       0.029300
     36 N32         -4.8990    14.2040    29.7680 na         1 PZ7      -0.257300
     37 N34         -6.2910    12.2100    29.1690 nd         1 PZ7      -0.650000
     38 N36         -8.0220    11.8780    30.7970 na         1 PZ7      -0.121400
     39 N39         -8.5180    13.0910    32.5380 nd         1 PZ7      -0.262600
     40 N42         -6.0600    14.8660    31.5880 nc         1 PZ7      -0.536100
     41 O12         -3.5850    10.8680    31.0010 o          1 PZ7      -0.614100
     42 O18          3.0370    10.9960    31.3360 os         1 PZ7      -0.397000
     43 O21          2.4480    11.7040    28.3740 os         1 PZ7      -0.574400
     44 O23          0.5090    11.4150    26.7440 o          1 PZ7      -0.822000
     45 O27          0.3990    15.3360    29.6490 os         1 PZ7      -0.601400
     46 O45         -3.5980    14.5330    26.2900 oh         1 PZ7      -0.674000
     47 O47         -2.5960    17.0080    26.8340 oh         1 PZ7      -0.688000
     48 O48          2.7600    14.7160    29.0250 o          1 PZ7      -0.846500
     49 O49          2.2270    13.0760    26.2260 o          1 PZ7      -0.822000
     50 O51          4.2170     8.3010    31.3540 oh         1 PZ7      -0.705000
     51 O53          1.9190     7.8730    32.7330 oh         1 PZ7      -0.724000
     52 P22          1.4580    12.4140    27.3190 p5         1 PZ7       1.444800
     53 P25          1.3740    14.7980    28.4810 p5         1 PZ7       1.462800
     54 H1          -7.7190    10.6250    29.0860 h5         1 PZ7       0.045100
     55 H2          -3.8320    13.0870    28.4120 h2         1 PZ7       0.105700
     56 H3          -1.3680    14.7660    27.7430 h1         1 PZ7       0.098700
     57 H4          -0.4920    17.0240    28.8010 h1         1 PZ7       0.023700
     58 H5          -1.2330    16.4680    30.3000 h1         1 PZ7       0.023700
     59 H6           1.0580    10.7810    29.6450 h1         1 PZ7       0.028200
     60 H7           1.8320     9.7200    28.4480 h1         1 PZ7       0.028200
     61 H8           4.0920    10.3510    29.6490 h1         1 PZ7       0.118700
     62 H9           2.6790    10.2770    33.2540 h2         1 PZ7       0.093700
     63 H10          1.3900    12.7610    31.2120 h4         1 PZ7       0.213000
     64 H12         -4.0540    14.6520    33.7580 hc         1 PZ7       0.063033
     65 H13         -2.7950    13.8790    34.7580 hc         1 PZ7       0.063033
     66 H14         -3.2030    13.3860    31.7710 h1         1 PZ7       0.102700
     67 H15         -4.4520    12.4260    35.0280 h1         1 PZ7       0.043033
     68 H16         -5.8610    12.6900    33.9610 h1         1 PZ7       0.043033
     69 H17         -5.3700    11.0430    34.4550 h1         1 PZ7       0.043033
     70 H18         -5.4260     9.1890    30.2620 h1         1 PZ7       0.089700
     71 H19         -6.7690     8.7720    31.3360 h1         1 PZ7       0.089700
     72 H20         -0.8810    13.7560    31.2830 ha         1 PZ7       0.176000
     73 H21         -9.5560    10.3280    30.9170 h4         1 PZ7       0.226000
     74 H22        -10.1910    11.8590    33.1570 h4         1 PZ7       0.226000
     75 H23         -4.3410    15.9800    30.8960 h5         1 PZ7       0.096800
     76 H24         -5.0150    15.5150    27.4840 h1         1 PZ7       0.056700
     77 H25         -3.4060    16.8740    28.7490 h1         1 PZ7       0.036700
     78 H26          2.7430     8.0180    29.9000 h1         1 PZ7       0.074700
     79 H27          0.9000     8.9000    31.2150 h1         1 PZ7       0.079700
     80 H28          0.2790     9.8860    34.1480 h4         1 PZ7       0.213000
     81 H29         -2.0140    10.8750    34.2890 ha         1 PZ7       0.176000
     82 H30         -5.9600    10.2900    32.9660 hn         1 PZ7       0.321500
     83 H31         -4.3050    13.9000    26.0220 ho         1 PZ7       0.498000
     84 H32         -2.7170    16.3870    26.0730 ho         1 PZ7       0.519000
     85 H35          3.8820     7.8900    32.1900 ho         1 PZ7       0.509000
     86 H36          1.3400     7.1290    32.4320 ho         1 PZ7       0.526000
     87 C04         -5.0050    12.0350    34.1660 c3         1 PZ7       0.087300
     88 C05         -4.3170    10.9680    31.9720 c          1 PZ7       0.651100
     89 H11         -2.3410    14.9360    33.4130 hc         1 PZ7       0.063033
@<TRIPOS>BOND
     1     1    37 2   
     2     1    38 1   
     3     1    54 1   
     4     2    22 2   
     5     2    36 1   
     6     2    37 1   
     7     3     4 1   
     8     3    24 1   
     9     3    36 1   
    10     3    55 1   
    11     4     5 1   
    12     5     6 1   
    13     5    25 1   
    14     5    56 1   
    15     6    45 1   
    16     6    57 1   
    17     6    58 1   
    18     7    53 1   
    19     8    52 1   
    20     8    53 1   
    21     9    10 1   
    22     9    43 1   
    23     9    59 1   
    24     9    60 1   
    25    10    26 1   
    26    10    42 1   
    27    10    61 1   
    28    11    27 1   
    29    11    35 1   
    30    11    42 1   
    31    11    62 1   
    32    12    18 ar  
    33    12    35 2   
    34    12    63 1   
    35    13    15 1   
    36    13    18 ar  
    37    13    29 ar  
    38    14    15 1   
    39    14    64 1   
    40    14    65 1   
    41    14    89 1   
    42    15    33 1   
    43    15    66 1   
    44    16    17 1   
    45    16    34 1   
    46    16    70 1   
    47    16    71 1   
    48    17    30 1   
    49    17    31 1   
    50    17    32 1   
    51    18    72 1   
    52    19    20 2   
    53    19    38 1   
    54    19    73 1   
    55    20    39 1   
    56    20    74 1   
    57    21    22 1   
    58    21    38 1   
    59    21    39 2   
    60    22    40 1   
    61    23    36 1   
    62    23    40 2   
    63    23    75 1   
    64    24    25 1   
    65    24    46 1   
    66    24    76 1   
    67    25    47 1   
    68    25    77 1   
    69    26    27 1   
    70    26    50 1   
    71    26    78 1   
    72    27    51 1   
    73    27    79 1   
    74    28    29 ar  
    75    28    35 1   
    76    28    80 1   
    77    29    81 1   
    78    33    87 1   
    79    33    88 1   
    80    34    82 1   
    81    34    88 1   
    82    41    88 2   
    83    43    52 1   
    84    44    52 1   
    85    45    53 1   
    86    46    83 1   
    87    47    84 1   
    88    48    53 1   
    89    49    52 1   
    90    50    85 1   
    91    51    86 1   
    92    67    87 1   
    93    68    87 1   
    94    69    87 1   
@<TRIPOS>SUBSTRUCTURE
     1 PZ7         1 TEMP              0 ****  ****    0 ROOT
