@<TRIPOS>MOLECULE
PZ8
   28    29     1     0     0
SMALL
abcg2


@<TRIPOS>ATOM
      1 C4          29.1620    -6.8080    -7.1010 ca         1 PZ8       0.047800
      2 C5          26.8880    -5.9420    -6.6500 cc         1 PZ8      -0.136300
      3 C6          26.2300    -7.0560    -7.3850 c3         1 PZ8      -0.024800
      4 C7          26.3700    -4.8470    -5.9910 cd         1 PZ8      -0.169600
      5 C8          24.9290    -4.4580    -5.8000 c          1 PZ8       0.731600
      6 C9          27.4810    -4.1010    -5.4960 cd         1 PZ8      -0.120000
      7 C10         28.6320    -4.7370    -5.8590 cc         1 PZ8      -0.220300
      8 C11         30.0530    -4.3990    -5.5740 c3         1 PZ8      -0.005800
      9 C12         29.1970    -8.0940    -6.5760 ca         1 PZ8      -0.105000
     10 N           28.2610    -5.8640    -6.5630 na         1 PZ8       0.065200
     11 C           30.0760    -9.0170    -7.1180 ca         1 PZ8       0.122000
     12 O           24.0470    -5.1920    -6.2970 o          1 PZ8      -0.731500
     13 C1          30.9340    -8.6790    -8.1530 ca         1 PZ8      -0.125000
     14 C2          30.8950    -7.3870    -8.6570 ca         1 PZ8      -0.106000
     15 C3          30.0080    -6.4520    -8.1440 ca         1 PZ8      -0.114000
     16 O1          24.7280    -3.4120    -5.1460 o          1 PZ8      -0.731500
     17 CL          30.1070   -10.6260    -6.4780 cl         1 PZ8      -0.223000
     18 H1          26.2990    -8.0080    -6.8520 hc         1 PZ8       0.042700
     19 H2          25.1790    -6.8230    -7.5100 hc         1 PZ8       0.042700
     20 H3          26.6750    -7.2110    -8.3710 hc         1 PZ8       0.042700
     21 H4          27.4340    -3.1870    -4.9240 ha         1 PZ8       0.135000
     22 H5          30.6160    -4.1370    -6.4730 hc         1 PZ8       0.025700
     23 H6          30.0920    -3.5420    -4.9050 hc         1 PZ8       0.025700
     24 H7          30.5850    -5.2210    -5.0900 hc         1 PZ8       0.025700
     25 H8          28.5490    -8.3640    -5.7530 ha         1 PZ8       0.148000
     26 H9          31.6190    -9.4090    -8.5620 ha         1 PZ8       0.117000
     27 H10         31.5570    -7.1120    -9.4670 ha         1 PZ8       0.108000
     28 H11         29.9650    -5.4520    -8.5560 ha         1 PZ8       0.132000
@<TRIPOS>BOND
     1     1     9 ar  
     2     1    10 1   
     3     1    15 ar  
     4     2     3 1   
     5     2     4 2   
     6     2    10 1   
     7     3    18 1   
     8     3    19 1   
     9     3    20 1   
    10     4     5 1   
    11     4     6 1   
    12     5    12 1   
    13     5    16 1   
    14     6     7 2   
    15     6    21 1   
    16     7     8 1   
    17     7    10 1   
    18     8    22 1   
    19     8    23 1   
    20     8    24 1   
    21     9    11 ar  
    22     9    25 1   
    23    11    13 ar  
    24    11    17 1   
    25    13    14 ar  
    26    13    26 1   
    27    14    15 ar  
    28    14    27 1   
    29    15    28 1   
@<TRIPOS>SUBSTRUCTURE
     1 PZ8         1 TEMP              0 ****  ****    0 ROOT
