@<TRIPOS>MOLECULE
PZ8
   28    29     1     0     0
SMALL
No Charge or Current Charge


@<TRIPOS>ATOM
      1 C4          29.1520    -6.7870    -7.1060 ca         1 PZ8       0.047800
      2 C5          26.8710    -5.9620    -6.6730 cc         1 PZ8      -0.136300
      3 C6          26.1330    -7.0540    -7.4170 c3         1 PZ8      -0.024800
      4 C7          26.3910    -4.8690    -5.9680 cd         1 PZ8      -0.169600
      5 C8          24.9480    -4.5130    -5.7550 c          1 PZ8       0.731600
      6 C9          27.5080    -4.1370    -5.4740 cd         1 PZ8      -0.120000
      7 C10         28.6760    -4.7440    -5.8450 cc         1 PZ8      -0.220300
      8 C11         30.1010    -4.3580    -5.5430 c3         1 PZ8      -0.005800
      9 C12         29.2320    -8.0820    -6.5600 ca         1 PZ8      -0.105000
     10 N           28.2610    -5.8540    -6.5730 na         1 PZ8       0.065200
     11 C           30.1300    -9.0180    -7.0960 ca         1 PZ8       0.122000
     12 O           24.0670    -5.2240    -6.2170 o          1 PZ8      -0.731500
     13 C1          30.9540    -8.6690    -8.1780 ca         1 PZ8      -0.125000
     14 C2          30.8810    -7.3760    -8.7270 ca         1 PZ8      -0.106000
     15 C3          29.9810    -6.4380    -8.1910 ca         1 PZ8      -0.114000
     16 O1          24.6970    -3.5050    -5.1090 o          1 PZ8      -0.731500
     17 Cl          30.2230   -10.6350    -6.4100 cl         1 PZ8      -0.223000
     18 H1          25.5970    -7.7070    -6.7190 hc         1 PZ8       0.042700
     19 H2          25.4030    -6.6270    -8.1140 hc         1 PZ8       0.042700
     20 H3          26.8080    -7.6820    -8.0100 hc         1 PZ8       0.042700
     21 H4          27.4430    -3.2300    -4.8810 ha         1 PZ8       0.135000
     22 H5          30.6090    -3.9990    -6.4460 hc         1 PZ8       0.025700
     23 H6          30.1410    -3.5580    -4.7940 hc         1 PZ8       0.025700
     24 H7          30.6660    -5.2120    -5.1520 hc         1 PZ8       0.025700
     25 H8          28.5990    -8.3600    -5.7210 ha         1 PZ8       0.148000
     26 H9          31.6480    -9.3970    -8.5900 ha         1 PZ8       0.117000
     27 H10         31.5180    -7.1030    -9.5650 ha         1 PZ8       0.108000
     28 H11         29.9240    -5.4390    -8.6180 ha         1 PZ8       0.132000
@<TRIPOS>BOND
     1     1     9 ar  
     2     1    10 1   
     3     1    15 ar  
     4     2     3 1   
     5     2     4 2   
     6     2    10 1   
     7     3    18 1   
     8     3    19 1   
     9     3    20 1   
    10     4     5 1   
    11     4     6 1   
    12     5    12 1   
    13     5    16 1   
    14     6     7 2   
    15     6    21 1   
    16     7     8 1   
    17     7    10 1   
    18     8    22 1   
    19     8    23 1   
    20     8    24 1   
    21     9    11 ar  
    22     9    25 1   
    23    11    13 ar  
    24    11    17 1   
    25    13    14 ar  
    26    13    26 1   
    27    14    15 ar  
    28    14    27 1   
    29    15    28 1   
@<TRIPOS>SUBSTRUCTURE
     1 PZ8         1 TEMP              0 ****  ****    0 ROOT
