@<TRIPOS>MOLECULE
PZA
   14    14     1     0     0
SMALL
No Charge or Current Charge


@<TRIPOS>ATOM
      1 C           -0.0910     0.0050     1.7230 c          1 PZA       0.517600
      2 N1           1.0750     0.0240     2.4170 nt         1 PZA      -0.585000
      3 O           -1.1460    -0.0130     2.3410 o          1 PZA      -0.602100
      4 C1           1.2050     0.0270    -1.7770 ca         1 PZA       0.284900
      5 C2          -0.0060     0.0070    -2.5170 ca         1 PZA       0.303900
      6 N2          -1.2280    -0.0140    -1.9160 nb         1 PZA      -0.635000
      7 C3          -1.2110    -0.0140    -0.5510 ca         1 PZA       0.344900
      8 C4          -0.0050     0.0060     0.2020 ca         1 PZA       0.231500
      9 N3           1.2270     0.0270    -0.4140 nb         1 PZA      -0.641000
     10 H1           1.0610     0.0240     3.4260 hn         1 PZA       0.328500
     11 H2           1.9500     0.0390     1.9100 hn         1 PZA       0.328500
     12 H5           0.0070     0.0070    -3.6060 h4         1 PZA       0.033100
     13 H4          -2.1820    -0.0300    -0.0570 h4         1 PZA       0.057100
     14 H3           2.1690     0.0430    -2.2840 h4         1 PZA       0.033100
@<TRIPOS>BOND
     1     1     2 1   
     2     1     3 2   
     3     1     8 1   
     4     2    10 1   
     5     2    11 1   
     6     4     5 ar  
     7     4     9 ar  
     8     4    14 1   
     9     5     6 ar  
    10     5    12 1   
    11     6     7 ar  
    12     7     8 ar  
    13     7    13 1   
    14     8     9 ar  
@<TRIPOS>SUBSTRUCTURE
     1 PZA         1 TEMP              0 ****  ****    0 ROOT
