@<TRIPOS>MOLECULE
PZA
   14    14     1     0     0
SMALL
bcc


@<TRIPOS>ATOM
      1 C           -0.1040     0.0040     1.7060 c          1 PZA       0.584600
      2 N1           1.0820     0.0260     2.3150 nt         1 PZA      -0.652000
      3 O           -1.1830    -0.0150     2.2800 o          1 PZA      -0.602100
      4 C1           1.1860     0.0260    -1.6980 ca         1 PZA       0.284900
      5 C2           0.0140     0.0070    -2.4460 ca         1 PZA       0.303900
      6 N2          -1.1790    -0.0130    -1.8700 nb         1 PZA      -0.635000
      7 C3          -1.2080    -0.0130    -0.5440 ca         1 PZA       0.344900
      8 C4          -0.0390     0.0060     0.2060 ca         1 PZA       0.231500
      9 N3           1.1530     0.0250    -0.3770 nb         1 PZA      -0.641000
     10 H1           1.1410     0.0250     3.3190 hn         1 PZA       0.328500
     11 H2           1.9360     0.0390     1.7820 hn         1 PZA       0.328500
     12 H5           0.0510     0.0080    -3.5280 h4         1 PZA       0.033100
     13 H4          -2.1800    -0.0300    -0.0680 h4         1 PZA       0.057100
     14 H3           2.1550     0.0420    -2.1790 h4         1 PZA       0.033100
@<TRIPOS>BOND
     1     1     2 1   
     2     1     3 2   
     3     1     8 1   
     4     2    10 1   
     5     2    11 1   
     6     4     5 ar  
     7     4     9 ar  
     8     4    14 1   
     9     5     6 ar  
    10     5    12 1   
    11     6     7 ar  
    12     7     8 ar  
    13     7    13 1   
    14     8     9 ar  
@<TRIPOS>SUBSTRUCTURE
     1 PZA         1 TEMP              0 ****  ****    0 ROOT
