@<TRIPOS>MOLECULE
PZB
   32    34     1     0     0
SMALL
abcg2


@<TRIPOS>ATOM
      1 CAF         -3.0670    -1.3100     1.1530 ca         1 PZB      -0.154000
      2 CAD         -3.8130    -2.1370     0.3290 ca         1 PZB      -0.079500
      3 CAC         -3.9220    -1.8690    -1.0310 ca         1 PZB      -0.139000
      4 CAE         -3.2760    -0.7610    -1.5560 ca         1 PZB      -0.079500
      5 CAG         -2.5240     0.0800    -0.7440 ca         1 PZB      -0.154000
      6 CAQ         -2.4260    -0.2010     0.6120 ca         1 PZB       0.122100
      7 OAN         -1.7140     0.5650     1.4960 os         1 PZB      -0.215200
      8 CAR         -0.9400     1.5720     1.0140 cc         1 PZB      -0.022900
      9 CAJ         -1.2700     2.9070     1.0150 cd         1 PZB      -0.160000
     10 NAM         -0.2260     3.5410     0.4700 na         1 PZB       0.016800
     11 NAL          0.7500     2.7170     0.1220 nd         1 PZB      -0.587800
     12 CAT          0.3500     1.4900     0.4390 cc         1 PZB       0.351500
     13 CAS          1.2010     0.3370     0.1510 ca         1 PZB      -0.273500
     14 CAI          0.9430    -0.9240     0.6960 ca         1 PZB      -0.006000
     15 CAH          1.7170    -2.0300     0.4100 ca         1 PZB      -0.196000
     16 CAO          2.8020    -1.8930    -0.4570 ca         1 PZB       0.192100
     17 OAA          3.5330    -2.9900    -0.7220 oh         1 PZB      -0.530100
     18 CAK          3.0980    -0.6530    -1.0040 ca         1 PZB      -0.271000
     19 CAP          2.3180     0.4600    -0.7010 ca         1 PZB       0.228100
     20 OAB          2.6820     1.6220    -1.2590 oh         1 PZB      -0.551100
     21 H1          -2.9790    -1.5200     2.2120 ha         1 PZB       0.125500
     22 H2          -4.3100    -3.0000     0.7550 ha         1 PZB       0.113500
     23 H3          -4.5050    -2.5180    -1.6710 ha         1 PZB       0.115000
     24 H4          -3.3520    -0.5380    -2.6130 ha         1 PZB       0.113500
     25 H5          -2.0310     0.9420    -1.1750 ha         1 PZB       0.125500
     26 H6          -2.1510     3.4220     1.3600 h4         1 PZB       0.170000
     27 H7          -0.1220     4.5330     0.3260 hn         1 PZB       0.382000
     28 H8           0.1210    -1.0500     1.3870 ha         1 PZB       0.127000
     29 H9           1.4910    -2.9900     0.8550 ha         1 PZB       0.132000
     30 H10          4.2590    -2.7790    -1.3200 ho         1 PZB       0.468000
     31 H11          3.9460    -0.5310    -1.6690 ha         1 PZB       0.128000
     32 H12          2.1030     2.3420    -0.9250 ho         1 PZB       0.509000
@<TRIPOS>BOND
     1     1     2 ar  
     2     1     6 ar  
     3     1    21 1   
     4     2     3 ar  
     5     2    22 1   
     6     3     4 ar  
     7     3    23 1   
     8     4     5 ar  
     9     4    24 1   
    10     5     6 ar  
    11     5    25 1   
    12     6     7 1   
    13     7     8 1   
    14     8     9 2   
    15     8    12 1   
    16     9    10 1   
    17     9    26 1   
    18    10    11 1   
    19    10    27 1   
    20    11    12 2   
    21    12    13 1   
    22    13    14 ar  
    23    13    19 ar  
    24    14    15 ar  
    25    14    28 1   
    26    15    16 ar  
    27    15    29 1   
    28    16    17 1   
    29    16    18 ar  
    30    17    30 1   
    31    18    19 ar  
    32    18    31 1   
    33    19    20 1   
    34    20    32 1   
@<TRIPOS>SUBSTRUCTURE
     1 PZB         1 TEMP              0 ****  ****    0 ROOT
