@<TRIPOS>MOLECULE
PZB
   32    34     1     0     0
SMALL
No Charge or Current Charge


@<TRIPOS>ATOM
      1 CAF         -3.0910    -1.3080     1.1670 ca         1 PZB      -0.154000
      2 CAD         -3.9250    -2.0580     0.3210 ca         1 PZB      -0.079500
      3 CAC         -4.0640    -1.6940    -1.0270 ca         1 PZB      -0.139000
      4 CAE         -3.3710    -0.5800    -1.5280 ca         1 PZB      -0.079500
      5 CAG         -2.5360     0.1730    -0.6830 ca         1 PZB      -0.154000
      6 CAQ         -2.3870    -0.1900     0.6820 ca         1 PZB       0.122100
      7 OAN         -1.5830     0.4810     1.6000 os         1 PZB      -0.215200
      8 CAR         -0.8690     1.5000     1.0220 cc         1 PZB      -0.022900
      9 CAJ         -1.3670     2.7580     1.0590 cd         1 PZB      -0.160000
     10 NAM         -0.4020     3.4920     0.3590 na         1 PZB       0.016800
     11 NAL          0.6650     2.6930    -0.0930 nd         1 PZB      -0.587800
     12 CAT          0.3630     1.4670     0.3250 cc         1 PZB       0.351500
     13 CAS          1.2530     0.3040     0.0750 ca         1 PZB      -0.273500
     14 CAI          0.9940    -0.9550     0.6700 ca         1 PZB      -0.006000
     15 CAH          1.8350    -2.0540     0.4360 ca         1 PZB      -0.196000
     16 CAO          2.9550    -1.9240    -0.3870 ca         1 PZB       0.192100
     17 OAA          3.7640    -2.9950    -0.6070 oh         1 PZB      -0.530100
     18 CAK          3.2430    -0.6920    -0.9740 ca         1 PZB      -0.271000
     19 CAP          2.4090     0.4090    -0.7440 ca         1 PZB       0.228100
     20 OAB          2.7370     1.5820    -1.3390 oh         1 PZB      -0.551100
     21 H1          -2.9860    -1.5950     2.2100 ha         1 PZB       0.125500
     22 H2          -4.4610    -2.9210     0.7100 ha         1 PZB       0.113500
     23 H3          -4.7090    -2.2750    -1.6840 ha         1 PZB       0.115000
     24 H4          -3.4820    -0.2990    -2.5730 ha         1 PZB       0.113500
     25 H5          -2.0230     1.0280    -1.1120 ha         1 PZB       0.125500
     26 H6          -2.2720     3.1760     1.4850 h4         1 PZB       0.170000
     27 H7          -0.4310     4.4960     0.1770 hn         1 PZB       0.382000
     28 H8           0.1520    -1.1090     1.3350 ha         1 PZB       0.127000
     29 H9           1.6160    -3.0120     0.9020 ha         1 PZB       0.132000
     30 H10          4.4900    -2.7100    -1.2020 ho         1 PZB       0.468000
     31 H11          4.1150    -0.5760    -1.6120 ha         1 PZB       0.128000
     32 H12          2.0550     2.2250    -1.0140 ho         1 PZB       0.509000
@<TRIPOS>BOND
     1     1     2 ar  
     2     1     6 ar  
     3     1    21 1   
     4     2     3 ar  
     5     2    22 1   
     6     3     4 ar  
     7     3    23 1   
     8     4     5 ar  
     9     4    24 1   
    10     5     6 ar  
    11     5    25 1   
    12     6     7 1   
    13     7     8 1   
    14     8     9 2   
    15     8    12 1   
    16     9    10 1   
    17     9    26 1   
    18    10    11 1   
    19    10    27 1   
    20    11    12 2   
    21    12    13 1   
    22    13    14 ar  
    23    13    19 ar  
    24    14    15 ar  
    25    14    28 1   
    26    15    16 ar  
    27    15    29 1   
    28    16    17 1   
    29    16    18 ar  
    30    17    30 1   
    31    18    19 ar  
    32    18    31 1   
    33    19    20 1   
    34    20    32 1   
@<TRIPOS>SUBSTRUCTURE
     1 PZB         1 TEMP              0 ****  ****    0 ROOT
