@<TRIPOS>MOLECULE
PZC
   94    96     1     0     0
SMALL
No Charge or Current Charge


@<TRIPOS>ATOM
      1 C01        -49.6150    13.1900   -20.9120 c3         1 PZC       0.162100
      2 C03        -50.8330    11.4450   -19.5070 c6         1 PZC       0.209500
      3 C04        -51.0520     9.9250   -19.7400 c6         1 PZC       0.163300
      4 C06        -51.2800     9.2020   -18.3530 c6         1 PZC       0.351300
      5 C08        -52.2140    11.2250   -17.3940 c6         1 PZC       0.135600
      6 C09        -52.0580    12.0500   -18.7130 c6         1 PZC       0.116000
      7 C10        -51.8660    13.5520   -18.3650 c3         1 PZC      -0.123100
      8 C13        -50.0030     8.0760   -16.5720 c6         1 PZC       0.167300
      9 C14        -49.6290     8.5150   -15.1160 c6         1 PZC       0.154300
     10 C16        -49.4990     7.2530   -14.2030 c6         1 PZC       0.100300
     11 C18        -50.3600     7.6700   -11.9310 c6         1 PZC       0.367300
     12 C20        -50.5010     5.3870   -11.0700 c2         1 PZC       0.090900
     13 C21        -49.5390     5.6280   -10.1630 c2         1 PZC      -0.328200
     14 C22        -48.9720     7.0180    -9.9180 c6         1 PZC      -0.035200
     15 C23        -49.9080     8.1060   -10.5020 c6         1 PZC       0.085700
     16 C26        -48.9660    11.8520   -10.5590 c3         1 PZC      -0.182100
     17 C28        -51.1700     4.0370   -11.3050 c3         1 PZC       0.204000
     18 C30        -50.8520     1.8330   -12.5000 c3         1 PZC       0.166800
     19 C31        -52.2090     1.7580   -13.2680 c3         1 PZC       0.165600
     20 C33        -48.4060     6.2890   -14.7590 c6         1 PZC       0.169500
     21 C35        -48.7510     5.8350   -16.1980 c6         1 PZC      -0.095400
     22 C36        -48.9420     7.0640   -17.1250 c6         1 PZC       0.102700
     23 C40        -50.1950     5.8810   -20.6320 c3         1 PZC       0.082300
     24 C42        -49.8350     4.4260   -21.0430 c3         1 PZC      -0.075400
     25 C43        -50.0160     4.1110   -22.5450 c3         1 PZC       0.159800
     26 N02        -50.5800    12.0750   -20.8370 n7         1 PZC      -0.874400
     27 N24        -49.2420     9.4260   -10.4870 ns         1 PZC      -0.510900
     28 N29        -50.3660     3.2180   -12.2490 n7         1 PZC      -0.862400
     29 N34        -48.2220     5.1240   -13.8660 n8         1 PZC      -0.994200
     30 N37        -49.1400     6.6760   -18.5340 ns         1 PZC      -0.494900
     31 N44        -48.9920     4.7760   -23.3640 n8         1 PZC      -0.997200
     32 O05        -49.9450     9.4080   -20.5070 oh         1 PZC      -0.686000
     33 O07        -52.4010     9.8180   -17.6810 os         1 PZC      -0.446000
     34 O11        -53.2620    11.9520   -19.5030 oh         1 PZC      -0.716000
     35 O12        -50.1270     9.2240   -17.4540 os         1 PZC      -0.474000
     36 O15        -50.5730     9.4670   -14.5810 oh         1 PZC      -0.710000
     37 O17        -49.2120     7.5780   -12.8140 os         1 PZC      -0.491000
     38 O19        -51.0050     6.3740   -11.8830 os         1 PZC      -0.351100
     39 O27        -51.0900    10.7230   -10.7370 o          1 PZC      -0.596100
     40 O32        -53.3350     1.9780   -12.3980 oh         1 PZC      -0.662000
     41 O39        -51.1630     5.6390   -18.3930 o          1 PZC      -0.605100
     42 O41        -49.2900     6.8280   -21.2630 oh         1 PZC      -0.657000
     43 H1         -49.5080    13.5340   -21.9490 h1         1 PZC       0.026367
     44 H2         -49.9340    14.0450   -20.3040 h1         1 PZC       0.026367
     45 H3         -48.6260    12.8710   -20.5570 h1         1 PZC       0.026367
     46 H4         -49.9300    11.5520   -18.8850 h1         1 PZC       0.071700
     47 H5         -51.9740     9.7980   -20.3260 h1         1 PZC       0.062700
     48 H6         -51.5440     8.1600   -18.5770 h2         1 PZC       0.066700
     49 H7         -51.3290    11.3560   -16.7540 h1         1 PZC       0.058200
     50 H8         -53.0830    11.5860   -16.8260 h1         1 PZC       0.058200
     51 H9         -50.9050    13.7270   -17.8650 hc         1 PZC       0.044700
     52 H10        -51.9020    14.1840   -19.2590 hc         1 PZC       0.044700
     53 H11        -52.6560    13.9080   -17.6920 hc         1 PZC       0.044700
     54 H12        -50.9760     7.5660   -16.5130 h1         1 PZC       0.088700
     55 H13        -48.6370     8.9900   -15.1670 h1         1 PZC       0.043700
     56 H14        -50.4550     6.7100   -14.2500 h1         1 PZC       0.073700
     57 H15        -51.0740     8.4090   -12.3230 h2         1 PZC       0.095700
     58 H17        -49.1610     4.8250    -9.5270 ha         1 PZC       0.187000
     59 H19        -48.8410     7.1870    -8.8400 hc         1 PZC       0.056700
     60 H20        -47.9730     7.0850   -10.3710 hc         1 PZC       0.056700
     61 H21        -50.8100     8.1640    -9.8740 h1         1 PZC       0.104700
     62 H22        -49.5130    12.7960   -10.6630 hc         1 PZC       0.061367
     63 H23        -48.3800    11.8250    -9.6330 hc         1 PZC       0.061367
     64 H24        -48.1920    11.7450   -11.3270 hc         1 PZC       0.061367
     65 H25        -52.1810     4.2080   -11.6970 h1         1 PZC       0.057700
     66 H26        -51.2780     3.5210   -10.3410 h1         1 PZC       0.057700
     67 H27        -50.9390     1.2750   -11.5580 h1         1 PZC       0.036700
     68 H28        -50.1060     1.3070   -13.1110 h1         1 PZC       0.036700
     69 H29        -52.2030     2.4870   -14.0900 h1         1 PZC       0.023200
     70 H30        -52.2890     0.7600   -13.7180 h1         1 PZC       0.023200
     71 H31        -47.4480     6.8320   -14.7800 h1         1 PZC       0.059700
     72 H32        -49.6620     5.2220   -16.1890 hc         1 PZC       0.069700
     73 H33        -47.9450     5.1990   -16.5890 hc         1 PZC       0.069700
     74 H34        -47.9840     7.6040   -17.1130 h1         1 PZC       0.061700
     75 H35        -51.2210     6.0830   -20.9680 h1         1 PZC       0.057700
     76 H36        -50.4830     3.7410   -20.4820 hc         1 PZC       0.069200
     77 H37        -48.8070     4.1960   -20.7360 hc         1 PZC       0.069200
     78 H38        -51.0070     4.4600   -22.8660 h1         1 PZC       0.025700
     79 H39        -49.9580     3.0280   -22.7200 h1         1 PZC       0.025700
     80 H40        -51.4950    12.3900   -21.1850 hn         1 PZC       0.431000
     81 H42        -48.2330     9.4530   -10.4010 hn         1 PZC       0.316500
     82 H43        -49.4240     3.1450   -11.8500 hn         1 PZC       0.408000
     83 H45        -48.1810     5.5110   -12.9150 hn         1 PZC       0.410000
     84 H46        -49.1030     4.5950   -13.8240 hn         1 PZC       0.410000
     85 H48        -48.4390     6.9660   -19.2080 hn         1 PZC       0.334500
     86 H49        -49.3500     4.8950   -24.3190 hn         1 PZC       0.397500
     87 H50        -48.9140     5.7390   -23.0030 hn         1 PZC       0.397500
     88 H52        -49.6840    10.2040   -21.0380 ho         1 PZC       0.486000
     89 H53        -53.7570    11.1700   -19.1630 ho         1 PZC       0.505000
     90 H54        -50.1110     9.9260   -13.8450 ho         1 PZC       0.504000
     91 H55        -54.1410     1.9250   -12.9580 ho         1 PZC       0.444000
     92 H56        -49.5810     7.7440   -21.0040 ho         1 PZC       0.444000
     93 C25        -49.8800    10.6360   -10.6020 c          1 PZC       0.600100
     94 C38        -50.2250     6.0240   -19.0770 c          1 PZC       0.560100
@<TRIPOS>BOND
     1     1    26 1   
     2     1    43 1   
     3     1    44 1   
     4     1    45 1   
     5     2     3 1   
     6     2     6 1   
     7     2    26 1   
     8     2    46 1   
     9     3     4 1   
    10     3    32 1   
    11     3    47 1   
    12     4    33 1   
    13     4    35 1   
    14     4    48 1   
    15     5     6 1   
    16     5    33 1   
    17     5    49 1   
    18     5    50 1   
    19     6     7 1   
    20     6    34 1   
    21     7    51 1   
    22     7    52 1   
    23     7    53 1   
    24     8     9 1   
    25     8    22 1   
    26     8    35 1   
    27     8    54 1   
    28     9    10 1   
    29     9    36 1   
    30     9    55 1   
    31    10    20 1   
    32    10    37 1   
    33    10    56 1   
    34    11    15 1   
    35    11    37 1   
    36    11    38 1   
    37    11    57 1   
    38    12    13 2   
    39    12    17 1   
    40    12    38 1   
    41    13    14 1   
    42    13    58 1   
    43    14    15 1   
    44    14    59 1   
    45    14    60 1   
    46    15    27 1   
    47    15    61 1   
    48    16    62 1   
    49    16    63 1   
    50    16    64 1   
    51    16    93 1   
    52    17    28 1   
    53    17    65 1   
    54    17    66 1   
    55    18    19 1   
    56    18    28 1   
    57    18    67 1   
    58    18    68 1   
    59    19    40 1   
    60    19    69 1   
    61    19    70 1   
    62    20    21 1   
    63    20    29 1   
    64    20    71 1   
    65    21    22 1   
    66    21    72 1   
    67    21    73 1   
    68    22    30 1   
    69    22    74 1   
    70    23    24 1   
    71    23    42 1   
    72    23    75 1   
    73    23    94 1   
    74    24    25 1   
    75    24    76 1   
    76    24    77 1   
    77    25    31 1   
    78    25    78 1   
    79    25    79 1   
    80    26    80 1   
    81    27    81 1   
    82    27    93 1   
    83    28    82 1   
    84    29    83 1   
    85    29    84 1   
    86    30    85 1   
    87    30    94 1   
    88    31    86 1   
    89    31    87 1   
    90    32    88 1   
    91    34    89 1   
    92    36    90 1   
    93    39    93 2   
    94    40    91 1   
    95    41    94 2   
    96    42    92 1   
@<TRIPOS>SUBSTRUCTURE
     1 PZC         1 TEMP              0 ****  ****    0 ROOT
