@<TRIPOS>MOLECULE
PZC
   94    96     1     0     0
SMALL
bcc


@<TRIPOS>ATOM
      1 C01        -48.8660    13.6950   -19.5280 c3         1 PZC       0.162100
      2 C03        -50.4450    11.9150   -18.9210 c6         1 PZC       0.209500
      3 C04        -50.6150    10.5240   -19.5410 c6         1 PZC       0.140100
      4 C06        -51.1660     9.5120   -18.5250 c6         1 PZC       0.304900
      5 C08        -52.2060    11.2330   -17.2860 c6         1 PZC       0.112400
      6 C09        -51.7550    12.3430   -18.2310 c6         1 PZC       0.092800
      7 C10        -51.5780    13.6260   -17.4270 c3         1 PZC      -0.123100
      8 C13        -50.2360     8.0270   -16.8780 c6         1 PZC       0.144100
      9 C14        -49.9190     8.3290   -15.4150 c6         1 PZC       0.131100
     10 C16        -49.8010     7.0420   -14.5970 c6         1 PZC       0.077100
     11 C18        -50.5620     7.3220   -12.3430 c6         1 PZC       0.320900
     12 C20        -50.0910     5.3830   -11.0560 c2         1 PZC       0.090900
     13 C21        -49.1740     6.0240   -10.3320 c2         1 PZC      -0.278200
     14 C22        -48.9500     7.4980   -10.4430 c6         1 PZC      -0.035200
     15 C23        -50.1530     8.1430   -11.1210 c6         1 PZC       0.085700
     16 C26        -50.2030    11.9060   -11.5930 c3         1 PZC      -0.182100
     17 C28        -50.4110     3.9280   -10.9130 c3         1 PZC       0.204000
     18 C30        -50.5220     1.8000   -12.1170 c3         1 PZC       0.166800
     19 C31        -51.8260     1.6430   -12.8690 c3         1 PZC       0.142400
     20 C33        -48.6920     6.1430   -15.1440 c6         1 PZC       0.169500
     21 C35        -49.0420     5.7900   -16.5820 c6         1 PZC      -0.095400
     22 C36        -49.2020     7.0420   -17.4440 c6         1 PZC       0.102700
     23 C40        -50.3640     5.6270   -20.8020 c3         1 PZC       0.059100
     24 C42        -50.1220     4.1210   -20.8780 c3         1 PZC      -0.075400
     25 C43        -50.1620     3.5380   -22.2880 c3         1 PZC       0.159800
     26 N02        -49.9800    12.8610   -19.9210 n7         1 PZC      -0.818200
     27 N24        -49.8990     9.5130   -11.4910 ns         1 PZC      -0.577900
     28 N29        -50.0280     3.1700   -12.0930 n7         1 PZC      -0.807200
     29 N34        -48.4460     4.9390   -14.3750 n8         1 PZC      -0.883800
     30 N37        -49.4280     6.7140   -18.8410 ns         1 PZC      -0.561900
     31 N44        -48.9360     3.7710   -23.0360 n8         1 PZC      -0.886800
     32 O05        -49.3680    10.1180   -20.0450 oh         1 PZC      -0.563800
     33 O07        -52.3400     9.9850   -17.9320 os         1 PZC      -0.399600
     34 O11        -52.7030    12.5280   -19.2710 oh         1 PZC      -0.593800
     35 O12        -50.1640     9.2410   -17.5960 os         1 PZC      -0.427600
     36 O15        -50.9350     9.1610   -14.9100 oh         1 PZC      -0.587800
     37 O17        -49.5100     7.3710   -13.2480 os         1 PZC      -0.444600
     38 O19        -50.8780     5.9970   -11.9820 os         1 PZC      -0.327900
     39 O27        -51.7120    10.4200   -10.4860 o          1 PZC      -0.596100
     40 O32        -52.8700     2.3050   -12.1870 oh         1 PZC      -0.599800
     41 O39        -51.4500     5.6970   -18.6710 o          1 PZC      -0.605100
     42 O41        -49.3340     6.3060   -21.4840 oh         1 PZC      -0.594800
     43 H1         -48.6120    14.3670   -20.3480 h1         1 PZC       0.026367
     44 H2         -49.0320    14.3140   -18.6360 h1         1 PZC       0.026367
     45 H3         -47.9880    13.0760   -19.3340 h1         1 PZC       0.026367
     46 H4         -49.6850    11.8350   -18.1350 h1         1 PZC       0.071700
     47 H5         -51.3580    10.5950   -20.3460 h1         1 PZC       0.062700
     48 H6         -51.4720     8.5970   -19.0470 h2         1 PZC       0.066700
     49 H7         -51.5170    11.1710   -16.4380 h1         1 PZC       0.058200
     50 H8         -53.1930    11.4760   -16.8800 h1         1 PZC       0.058200
     51 H9         -50.8090    13.5120   -16.6630 hc         1 PZC       0.044700
     52 H10        -51.3020    14.4630   -18.0680 hc         1 PZC       0.044700
     53 H11        -52.5100    13.8920   -16.9200 hc         1 PZC       0.044700
     54 H12        -51.2410     7.5910   -16.9340 h1         1 PZC       0.088700
     55 H13        -48.9460     8.8440   -15.3810 h1         1 PZC       0.043700
     56 H14        -50.7500     6.4880   -14.6560 h1         1 PZC       0.073700
     57 H15        -51.4850     7.7150   -12.7810 h2         1 PZC       0.095700
     58 H17        -48.5890     5.4540    -9.6230 ha         1 PZC       0.137000
     59 H19        -48.8170     7.9370    -9.4510 hc         1 PZC       0.056700
     60 H20        -48.0310     7.7170   -10.9970 hc         1 PZC       0.056700
     61 H21        -50.9970     8.1420   -10.4300 h1         1 PZC       0.104700
     62 H22        -50.9910    12.3930   -12.1670 hc         1 PZC       0.061367
     63 H23        -50.0040    12.5300   -10.7220 hc         1 PZC       0.061367
     64 H24        -49.3020    11.8700   -12.2020 hc         1 PZC       0.061367
     65 H25        -51.4870     3.8210   -10.7630 h1         1 PZC       0.057700
     66 H26        -49.9310     3.5590    -9.9970 h1         1 PZC       0.057700
     67 H27        -50.6200     1.3710   -11.1090 h1         1 PZC       0.036700
     68 H28        -49.7860     1.1840   -12.6380 h1         1 PZC       0.036700
     69 H29        -51.6910     2.0430   -13.8830 h1         1 PZC       0.023200
     70 H30        -52.0340     0.5700   -12.9720 h1         1 PZC       0.023200
     71 H31        -47.7580     6.7200   -15.1480 h1         1 PZC       0.059700
     72 H32        -49.9590     5.1940   -16.5950 hc         1 PZC       0.069700
     73 H33        -48.2500     5.1710   -17.0080 hc         1 PZC       0.069700
     74 H34        -48.2420     7.5670   -17.4320 h1         1 PZC       0.061700
     75 H35        -51.3400     5.8430   -21.2530 h1         1 PZC       0.057700
     76 H36        -50.8980     3.6370   -20.2840 hc         1 PZC       0.069200
     77 H37        -49.1650     3.8750   -20.4070 hc         1 PZC       0.069200
     78 H38        -51.0690     3.9040   -22.7920 h1         1 PZC       0.025700
     79 H39        -50.2880     2.4570   -22.1930 h1         1 PZC       0.025700
     80 H40        -50.7510    13.4250   -20.2520 hn         1 PZC       0.375800
     81 H42        -49.0540     9.7030   -12.0060 hn         1 PZC       0.316500
     82 H43        -49.0180     3.1530   -12.1380 hn         1 PZC       0.352800
     83 H45        -48.1330     5.1940   -13.4460 hn         1 PZC       0.354800
     84 H46        -49.3120     4.4300   -14.2300 hn         1 PZC       0.354800
     85 H48        -48.6790     6.9080   -19.4870 hn         1 PZC       0.334500
     86 H49        -49.0080     3.3200   -23.9390 hn         1 PZC       0.342300
     87 H50        -48.8350     4.7590   -23.2230 hn         1 PZC       0.342300
     88 H52        -49.4870     9.2930   -20.5230 ho         1 PZC       0.387000
     89 H53        -53.5100    12.8900   -18.8900 ho         1 PZC       0.406000
     90 H54        -50.5830     9.6680   -14.1730 ho         1 PZC       0.405000
     91 H55        -53.6590     2.2670   -12.7340 ho         1 PZC       0.405000
     92 H56        -49.6710     7.1490   -21.8010 ho         1 PZC       0.405000
     93 C25        -50.6840    10.5520   -11.1340 c          1 PZC       0.667100
     94 C38        -50.4710     6.0280   -19.3260 c          1 PZC       0.627100
@<TRIPOS>BOND
     1     1    26 1   
     2     1    43 1   
     3     1    44 1   
     4     1    45 1   
     5     2     3 1   
     6     2     6 1   
     7     2    26 1   
     8     2    46 1   
     9     3     4 1   
    10     3    32 1   
    11     3    47 1   
    12     4    33 1   
    13     4    35 1   
    14     4    48 1   
    15     5     6 1   
    16     5    33 1   
    17     5    49 1   
    18     5    50 1   
    19     6     7 1   
    20     6    34 1   
    21     7    51 1   
    22     7    52 1   
    23     7    53 1   
    24     8     9 1   
    25     8    22 1   
    26     8    35 1   
    27     8    54 1   
    28     9    10 1   
    29     9    36 1   
    30     9    55 1   
    31    10    20 1   
    32    10    37 1   
    33    10    56 1   
    34    11    15 1   
    35    11    37 1   
    36    11    38 1   
    37    11    57 1   
    38    12    13 2   
    39    12    17 1   
    40    12    38 1   
    41    13    14 1   
    42    13    58 1   
    43    14    15 1   
    44    14    59 1   
    45    14    60 1   
    46    15    27 1   
    47    15    61 1   
    48    16    62 1   
    49    16    63 1   
    50    16    64 1   
    51    16    93 1   
    52    17    28 1   
    53    17    65 1   
    54    17    66 1   
    55    18    19 1   
    56    18    28 1   
    57    18    67 1   
    58    18    68 1   
    59    19    40 1   
    60    19    69 1   
    61    19    70 1   
    62    20    21 1   
    63    20    29 1   
    64    20    71 1   
    65    21    22 1   
    66    21    72 1   
    67    21    73 1   
    68    22    30 1   
    69    22    74 1   
    70    23    24 1   
    71    23    42 1   
    72    23    75 1   
    73    23    94 1   
    74    24    25 1   
    75    24    76 1   
    76    24    77 1   
    77    25    31 1   
    78    25    78 1   
    79    25    79 1   
    80    26    80 1   
    81    27    81 1   
    82    27    93 1   
    83    28    82 1   
    84    29    83 1   
    85    29    84 1   
    86    30    85 1   
    87    30    94 1   
    88    31    86 1   
    89    31    87 1   
    90    32    88 1   
    91    34    89 1   
    92    36    90 1   
    93    39    93 2   
    94    40    91 1   
    95    41    94 2   
    96    42    92 1   
@<TRIPOS>SUBSTRUCTURE
     1 PZC         1 TEMP              0 ****  ****    0 ROOT
