@<TRIPOS>MOLECULE
PZD
   51    55     1     0     0
SMALL
No Charge or Current Charge


@<TRIPOS>ATOM
      1 C1A         -5.4150     0.4980     0.1350 ca         1 PZD       0.174100
      2 C2A         -5.0830    -0.7310    -0.4760 ca         1 PZD       0.069100
      3 C3A         -3.7360    -0.9990    -0.8050 ca         1 PZD      -0.093000
      4 C4A         -2.7140    -0.0650    -0.5140 ca         1 PZD      -0.197600
      5 C5A         -3.0670     1.1630     0.0890 ca         1 PZD       0.335000
      6 C6A         -4.4020     1.4400     0.4040 ca         1 PZD      -0.259000
      7 C7A         -1.2980    -0.4100    -0.9190 c          1 PZD       0.606600
      8 N1A         -0.2160     0.0960    -0.1700 n          1 PZD      -0.316000
      9 C8A         -0.3860     0.6180     1.2090 c5         1 PZD       0.093700
     10 C10          1.1200    -0.1410    -0.4630 c2         1 PZD      -0.031400
     11 C11          1.8970     0.1140     0.5870 ce         1 PZD      -0.171400
     12 C12          1.0910     0.5570     1.8040 c5         1 PZD      -0.036200
     13 O1A         -1.0890    -1.1030    -1.9100 o          1 PZD      -0.551000
     14 C13          5.5190    -0.1920    -0.6030 ca         1 PZD      -0.029000
     15 C14          6.2080    -0.2860     0.6240 ca         1 PZD      -0.041000
     16 C15          7.6100    -0.4150     0.6350 ca         1 PZD      -0.097000
     17 C16          8.3240    -0.4510    -0.5760 ca         1 PZD      -0.109000
     18 C17          7.6380    -0.3570    -1.7990 ca         1 PZD      -0.107000
     19 C18          6.2390    -0.2270    -1.8140 ca         1 PZD      -0.099000
     20 C19          4.1170    -0.0630    -0.6140 ca         1 PZD      -0.101000
     21 C20          3.3870    -0.0270     0.5940 ca         1 PZD      -0.003800
     22 C21          4.0890    -0.1160     1.8140 ca         1 PZD      -0.107000
     23 C22          5.4880    -0.2470     1.8310 ca         1 PZD      -0.096000
     24 O2A         -6.0970    -1.6380    -0.7400 os         1 PZD      -0.322100
     25 C23         -5.8560    -2.9140    -1.3620 c3         1 PZD       0.143900
     26 O3A         -6.7420     0.7450     0.4460 os         1 PZD      -0.315100
     27 C24         -7.1770     1.9650     1.0700 c3         1 PZD       0.143900
     28 C9A         -0.9650     2.0510     1.2020 c3         1 PZD       0.194800
     29 N2A         -2.1460     2.1760     0.3260 nu         1 PZD      -0.934200
     30 H8A         -1.0610    -0.0290     1.7850 h1         1 PZD       0.070700
     31 H24         -8.2620     1.9450     1.2280 h1         1 PZD       0.042700
     32 H24A        -6.6950     2.0970     2.0470 h1         1 PZD       0.042700
     33 H24B        -6.9410     2.8320     0.4400 h1         1 PZD       0.042700
     34 H23         -5.1760    -3.5230    -0.7530 h1         1 PZD       0.041367
     35 H23A        -6.7980    -3.4650    -1.4730 h1         1 PZD       0.041367
     36 H23B        -5.4190    -2.7850    -2.3600 h1         1 PZD       0.041367
     37 H3A         -3.4630    -1.9380    -1.2810 ha         1 PZD       0.139000
     38 H6A         -4.6390     2.3960     0.8580 ha         1 PZD       0.117000
     39 H22          6.0100    -0.3170     2.7820 ha         1 PZD       0.112000
     40 H15          8.1480    -0.4880     1.5780 ha         1 PZD       0.112000
     41 H17          8.1910    -0.3840    -2.7350 ha         1 PZD       0.112000
     42 H18          5.7160    -0.1550    -2.7650 ha         1 PZD       0.114000
     43 H21          3.5550    -0.0910     2.7600 ha         1 PZD       0.109000
     44 H19          3.6030     0.0200    -1.5670 ha         1 PZD       0.113000
     45 H10          1.3990    -0.4950    -1.4580 h4         1 PZD       0.231000
     46 H12          1.4340     1.5220     2.1950 hc         1 PZD       0.058700
     47 H12A         1.1570    -0.1750     2.6170 hc         1 PZD       0.058700
     48 H9A         -1.2330     2.3140     2.2340 h1         1 PZD       0.047700
     49 HN2A        -2.5790     3.1000     0.3520 hn         1 PZD       0.452000
     50 H9AA        -0.1900     2.7570     0.8690 h1         1 PZD       0.047700
     51 H16          9.4070    -0.5510    -0.5660 ha         1 PZD       0.112000
@<TRIPOS>BOND
     1     1     2 ar  
     2     1     6 ar  
     3     1    26 1   
     4     2     3 ar  
     5     2    24 1   
     6     3     4 ar  
     7     3    37 1   
     8     4     5 ar  
     9     4     7 1   
    10     5     6 ar  
    11     5    29 1   
    12     6    38 1   
    13     7     8 1   
    14     7    13 2   
    15     8     9 1   
    16     8    10 1   
    17     9    12 1   
    18     9    28 1   
    19     9    30 1   
    20    10    11 2   
    21    10    45 1   
    22    11    12 1   
    23    11    21 1   
    24    12    46 1   
    25    12    47 1   
    26    14    15 ar  
    27    14    19 ar  
    28    14    20 ar  
    29    15    16 ar  
    30    15    23 ar  
    31    16    17 ar  
    32    16    40 1   
    33    17    18 ar  
    34    17    51 1   
    35    18    19 ar  
    36    18    41 1   
    37    19    42 1   
    38    20    21 ar  
    39    20    44 1   
    40    21    22 ar  
    41    22    23 ar  
    42    22    43 1   
    43    23    39 1   
    44    24    25 1   
    45    25    34 1   
    46    25    35 1   
    47    25    36 1   
    48    26    27 1   
    49    27    31 1   
    50    27    32 1   
    51    27    33 1   
    52    28    29 1   
    53    28    48 1   
    54    28    50 1   
    55    29    49 1   
@<TRIPOS>SUBSTRUCTURE
     1 PZD         1 TEMP              0 ****  ****    0 ROOT
