@<TRIPOS>MOLECULE
PZD
   51    55     1     0     0
SMALL
bcc


@<TRIPOS>ATOM
      1 C1A         -5.3520     0.5150     0.1560 ca         1 PZD       0.174100
      2 C2A         -5.0270    -0.7250    -0.4390 ca         1 PZD       0.069100
      3 C3A         -3.7110    -0.9830    -0.7380 ca         1 PZD      -0.111000
      4 C4A         -2.6840    -0.0700    -0.4450 ca         1 PZD      -0.197600
      5 C5A         -2.9990     1.1510     0.1650 ca         1 PZD       0.196600
      6 C6A         -4.3490     1.4170     0.4530 ca         1 PZD      -0.277000
      7 C7A         -1.3350    -0.4220    -0.9330 c          1 PZD       0.749100
      8 N1A         -0.2910    -0.0010    -0.1790 n          1 PZD      -0.383000
      9 C8A         -0.3970     0.5290     1.1830 c5         1 PZD       0.093700
     10 C10          1.0430    -0.1900    -0.5100 c2         1 PZD       0.018600
     11 C11          1.8580     0.0580     0.5230 ce         1 PZD      -0.171400
     12 C12          1.0320     0.3950     1.7400 c5         1 PZD      -0.036200
     13 O1A         -1.1610    -1.0720    -1.9580 o          1 PZD      -0.626500
     14 C13          5.4560    -0.1790    -0.6130 ca         1 PZD      -0.029000
     15 C14          6.1350    -0.2170     0.6340 ca         1 PZD      -0.041000
     16 C15          7.5450    -0.3200     0.6500 ca         1 PZD      -0.115000
     17 C16          8.2520    -0.3810    -0.5200 ca         1 PZD      -0.127000
     18 C17          7.5790    -0.3410    -1.7610 ca         1 PZD      -0.125000
     19 C18          6.2160    -0.2410    -1.8070 ca         1 PZD      -0.117000
     20 C19          4.0510    -0.0760    -0.6330 ca         1 PZD      -0.119000
     21 C20          3.3120    -0.0210     0.5310 ca         1 PZD      -0.003800
     22 C21          4.0060    -0.0440     1.7700 ca         1 PZD      -0.125000
     23 C22          5.3680    -0.1440     1.8190 ca         1 PZD      -0.114000
     24 O2A         -6.0660    -1.5540    -0.6720 os         1 PZD      -0.298900
     25 C23         -5.7910    -2.7900    -1.2960 c3         1 PZD       0.120700
     26 O3A         -6.6520     0.7150     0.4040 os         1 PZD      -0.291900
     27 C24         -7.0510     1.9460     0.9770 c3         1 PZD       0.120700
     28 C9A         -0.8510     1.9710     1.1550 c3         1 PZD       0.194800
     29 N2A         -2.0730     2.1590     0.3890 nu         1 PZD      -0.740600
     30 H8A         -1.1040    -0.0770     1.7510 h1         1 PZD       0.070700
     31 H24         -8.1330     1.9050     1.0690 h1         1 PZD       0.042700
     32 H24A        -6.6180     2.0920     1.9700 h1         1 PZD       0.042700
     33 H24B        -6.7810     2.7940     0.3440 h1         1 PZD       0.042700
     34 H23         -5.1170    -3.4100    -0.6980 h1         1 PZD       0.041367
     35 H23A        -6.7430    -3.3050    -1.3990 h1         1 PZD       0.041367
     36 H23B        -5.3540    -2.6590    -2.2900 h1         1 PZD       0.041367
     37 H3A         -3.4330    -1.9120    -1.2160 ha         1 PZD       0.157000
     38 H6A         -4.5920     2.3630     0.9180 ha         1 PZD       0.135000
     39 H22          5.8740    -0.1670     2.7770 ha         1 PZD       0.130000
     40 H15          8.0600    -0.3510     1.6030 ha         1 PZD       0.130000
     41 H17          8.1510    -0.3900    -2.6790 ha         1 PZD       0.130000
     42 H18          5.7010    -0.2080    -2.7600 ha         1 PZD       0.132000
     43 H21          3.4460     0.0100     2.6950 ha         1 PZD       0.127000
     44 H19          3.5560    -0.0290    -1.5960 ha         1 PZD       0.131000
     45 H10          1.3020    -0.5040    -1.5090 h4         1 PZD       0.181000
     46 H12          1.3590     1.3210     2.2200 hc         1 PZD       0.058700
     47 H12A         1.0950    -0.3910     2.4970 hc         1 PZD       0.058700
     48 H9A         -0.9810     2.3010     2.1930 h1         1 PZD       0.047700
     49 HN2A        -2.5200     3.0290     0.6370 hn         1 PZD       0.396800
     50 H9AA        -0.0590     2.5870     0.7200 h1         1 PZD       0.047700
     51 H16          9.3310    -0.4580    -0.5000 ha         1 PZD       0.130000
@<TRIPOS>BOND
     1     1     2 ar  
     2     1     6 ar  
     3     1    26 1   
     4     2     3 ar  
     5     2    24 1   
     6     3     4 ar  
     7     3    37 1   
     8     4     5 ar  
     9     4     7 1   
    10     5     6 ar  
    11     5    29 1   
    12     6    38 1   
    13     7     8 1   
    14     7    13 2   
    15     8     9 1   
    16     8    10 1   
    17     9    12 1   
    18     9    28 1   
    19     9    30 1   
    20    10    11 2   
    21    10    45 1   
    22    11    12 1   
    23    11    21 1   
    24    12    46 1   
    25    12    47 1   
    26    14    15 ar  
    27    14    19 ar  
    28    14    20 ar  
    29    15    16 ar  
    30    15    23 ar  
    31    16    17 ar  
    32    16    40 1   
    33    17    18 ar  
    34    17    51 1   
    35    18    19 ar  
    36    18    41 1   
    37    19    42 1   
    38    20    21 ar  
    39    20    44 1   
    40    21    22 ar  
    41    22    23 ar  
    42    22    43 1   
    43    23    39 1   
    44    24    25 1   
    45    25    34 1   
    46    25    35 1   
    47    25    36 1   
    48    26    27 1   
    49    27    31 1   
    50    27    32 1   
    51    27    33 1   
    52    28    29 1   
    53    28    48 1   
    54    28    50 1   
    55    29    49 1   
@<TRIPOS>SUBSTRUCTURE
     1 PZD         1 TEMP              0 ****  ****    0 ROOT
