@<TRIPOS>MOLECULE
PZE
   16    16     1     0     0
SMALL
No Charge or Current Charge


@<TRIPOS>ATOM
      1 N7          -0.0130    -1.4660     0.1320 n7         1 PZE      -0.842400
      2 C8          -1.2430    -0.7190    -0.2640 c6         1 PZE       0.108800
      3 C9          -1.2370     0.7510     0.2690 c6         1 PZE       0.108800
      4 N10         -0.0000     1.4870    -0.1250 n7         1 PZE      -0.842400
      5 C11          1.2290     0.7400     0.2710 c6         1 PZE       0.108800
      6 C12          1.2230    -0.7300    -0.2620 c6         1 PZE       0.108800
      7 HN7         -0.0150    -1.5520     1.1570 hn         1 PZE       0.404000
      8 H8          -1.3200    -0.7010    -1.3620 h1         1 PZE       0.055325
      9 H8A         -2.1340    -1.2420     0.1160 h1         1 PZE       0.055325
     10 H9          -2.1230     1.2820    -0.1120 h1         1 PZE       0.055325
     11 H9A         -1.3160     0.7340     1.3670 h1         1 PZE       0.055325
     12 HN10         0.0010     1.5730    -1.1500 hn         1 PZE       0.404000
     13 H11          2.1210     1.2630    -0.1090 h1         1 PZE       0.055325
     14 H11A         1.3060     0.7220     1.3690 h1         1 PZE       0.055325
     15 H12          2.1090    -1.2610     0.1190 h1         1 PZE       0.055325
     16 H12A         1.3020    -0.7130    -1.3600 h1         1 PZE       0.055325
@<TRIPOS>BOND
     1     1     2 1   
     2     1     6 1   
     3     1     7 1   
     4     2     3 1   
     5     2     8 1   
     6     2     9 1   
     7     3     4 1   
     8     3    10 1   
     9     3    11 1   
    10     4     5 1   
    11     4    12 1   
    12     5     6 1   
    13     5    13 1   
    14     5    14 1   
    15     6    15 1   
    16     6    16 1   
@<TRIPOS>SUBSTRUCTURE
     1 PZE         1 TEMP              0 ****  ****    0 ROOT
