@<TRIPOS>MOLECULE
PZE
   16    16     1     0     0
SMALL
bcc


@<TRIPOS>ATOM
      1 N7          -0.0130    -1.4460     0.1230 n7         1 PZE      -0.787200
      2 C8          -1.2120    -0.7050    -0.2480 c6         1 PZE       0.108800
      3 C9          -1.2060     0.7370     0.2520 c6         1 PZE       0.108800
      4 N10          0.0000     1.4670    -0.1150 n7         1 PZE      -0.787200
      5 C11          1.1990     0.7260     0.2560 c6         1 PZE       0.108800
      6 C12          1.1930    -0.7160    -0.2460 c6         1 PZE       0.108800
      7 HN7         -0.0150    -1.5840     1.1280 hn         1 PZE       0.348800
      8 H8          -1.2910    -0.7070    -1.3410 h1         1 PZE       0.055325
      9 H8A         -2.0890    -1.2370     0.1310 h1         1 PZE       0.055325
     10 H9          -2.0780     1.2760    -0.1280 h1         1 PZE       0.055325
     11 H9A         -1.2880     0.7380     1.3460 h1         1 PZE       0.055325
     12 HN10         0.0020     1.6080    -1.1190 hn         1 PZE       0.348800
     13 H11          2.0760     1.2580    -0.1220 h1         1 PZE       0.055325
     14 H11A         1.2780     0.7270     1.3490 h1         1 PZE       0.055325
     15 H12          2.0650    -1.2560     0.1300 h1         1 PZE       0.055325
     16 H12A         1.2710    -0.7160    -1.3400 h1         1 PZE       0.055325
@<TRIPOS>BOND
     1     1     2 1   
     2     1     6 1   
     3     1     7 1   
     4     2     3 1   
     5     2     8 1   
     6     2     9 1   
     7     3     4 1   
     8     3    10 1   
     9     3    11 1   
    10     4     5 1   
    11     4    12 1   
    12     5     6 1   
    13     5    13 1   
    14     5    14 1   
    15     6    15 1   
    16     6    16 1   
@<TRIPOS>SUBSTRUCTURE
     1 PZE         1 TEMP              0 ****  ****    0 ROOT
