@<TRIPOS>MOLECULE
PZF
   47    50     1     0     0
SMALL
No Charge or Current Charge


@<TRIPOS>ATOM
      1 N3          -6.1620    -0.8420    -0.8780 nb         1 PZF      -0.766000
      2 C4          -7.1850    -0.2750    -0.2080 ca         1 PZF       0.596300
      3 C6          -5.6890     1.1270     1.0780 ca         1 PZF      -0.002000
      4 C13          2.5630    -0.9910     0.3820 c5         1 PZF      -0.041400
      5 C21          4.0520    -0.6410     0.1670 ca         1 PZF      -0.106300
      6 C8          -1.7160     2.4810     1.5810 ca         1 PZF       0.168900
      7 C16          0.4000    -1.3180    -0.5800 c5         1 PZF       0.223800
      8 C19         -8.7690    -1.6620    -1.4700 c3         1 PZF       0.159900
      9 C26          4.4670     0.2680    -0.8390 ca         1 PZF      -0.107000
     10 C24          6.7970    -0.0220    -0.1890 ca         1 PZF       0.166000
     11 C23          6.4070    -0.9210     0.8130 ca         1 PZF      -0.175000
     12 C22          5.0480    -1.2260     0.9890 ca         1 PZF       0.196000
     13 F27          4.7060    -2.0930     1.9680 f          1 PZF      -0.163000
     14 C25          5.8270     0.5730    -1.0140 ca         1 PZF       0.117000
     15 F28          6.1950     1.4440    -1.9820 f          1 PZF      -0.155000
     16 C17          1.9160    -1.4580    -0.9540 c5         1 PZF       0.151500
     17 N20          2.3510    -2.8090    -1.3780 n8         1 PZF      -0.987200
     18 N15          0.3900    -0.0860     0.2640 nh         1 PZF      -0.790300
     19 C14          1.7660     0.3120     0.6780 c5         1 PZF       0.243800
     20 C12         -0.7740     0.6350     0.6040 ca         1 PZF       0.395900
     21 N7          -0.6020     1.8020     1.2530 nb         1 PZF      -0.267000
     22 C11         -2.0600     0.1640     0.2930 ca         1 PZF      -0.289000
     23 C10         -3.1780     0.9470     0.6690 cp         1 PZF       0.222500
     24 N9          -2.9850     2.1090     1.3230 nb         1 PZF      -0.231000
     25 C1          -4.5950     0.5420     0.3910 cp         1 PZF      -0.251500
     26 C5          -6.9890     0.7070     0.7700 ca         1 PZF      -0.197000
     27 O18         -8.4780    -0.6580    -0.4780 os         1 PZF      -0.457300
     28 C2          -4.9070    -0.4400    -0.5820 ca         1 PZF       0.401900
     29 H6          -5.5380     1.8890     1.8420 ha         1 PZF       0.144000
     30 H13          2.3940    -1.7290     1.1740 hc         1 PZF       0.095700
     31 H8          -1.5790     3.4240     2.1070 h5         1 PZF       0.044100
     32 H161        -0.2200    -1.2170    -1.4810 h1         1 PZF       0.059200
     33 H162         0.0460    -2.1880    -0.0080 h1         1 PZF       0.059200
     34 H191        -8.4090    -1.3520    -2.4600 h1         1 PZF       0.047367
     35 H192        -8.2960    -2.6180    -1.2100 h1         1 PZF       0.047367
     36 H193        -9.8510    -1.8280    -1.5390 h1         1 PZF       0.047367
     37 H26          3.7420     0.7490    -1.4920 ha         1 PZF       0.140000
     38 H23          7.1540    -1.3800     1.4530 ha         1 PZF       0.157000
     39 H17          2.1560    -0.7690    -1.7750 h1         1 PZF       0.029700
     40 H201         1.9760    -3.0080    -2.3130 hn         1 PZF       0.403000
     41 H202         3.3670    -2.7980    -1.5270 hn         1 PZF       0.403000
     42 H141         1.8300     0.5790     1.7420 h1         1 PZF       0.065200
     43 H142         2.1170     1.1690     0.0870 h1         1 PZF       0.065200
     44 H11         -2.1900    -0.7860    -0.2080 ha         1 PZF       0.129000
     45 H5          -7.8450     1.1340     1.2810 ha         1 PZF       0.140000
     46 H2          -4.1230    -0.9190    -1.1650 h4         1 PZF       0.016100
     47 F29          8.1080     0.2680    -0.3530 f          1 PZF      -0.151000
@<TRIPOS>BOND
     1     1     2 ar  
     2     1    28 ar  
     3     2    26 ar  
     4     2    27 1   
     5     3    25 ar  
     6     3    26 ar  
     7     3    29 1   
     8     4     5 1   
     9     4    16 1   
    10     4    19 1   
    11     4    30 1   
    12     5     9 ar  
    13     5    12 ar  
    14     6    21 ar  
    15     6    24 ar  
    16     6    31 1   
    17     7    16 1   
    18     7    18 1   
    19     7    32 1   
    20     7    33 1   
    21     8    27 1   
    22     8    34 1   
    23     8    35 1   
    24     8    36 1   
    25     9    14 ar  
    26     9    37 1   
    27    10    11 ar  
    28    10    14 ar  
    29    10    47 1   
    30    11    12 ar  
    31    11    38 1   
    32    12    13 1   
    33    14    15 1   
    34    16    17 1   
    35    16    39 1   
    36    17    40 1   
    37    17    41 1   
    38    18    19 1   
    39    18    20 1   
    40    19    42 1   
    41    19    43 1   
    42    20    21 ar  
    43    20    22 ar  
    44    22    23 ar  
    45    22    44 1   
    46    23    24 ar  
    47    23    25 1   
    48    25    28 ar  
    49    26    45 1   
    50    28    46 1   
@<TRIPOS>SUBSTRUCTURE
     1 PZF         1 TEMP              0 ****  ****    0 ROOT
