@<TRIPOS>MOLECULE
PZF
   47    50     1     0     0
SMALL
abcg2


@<TRIPOS>ATOM
      1 N3          -6.0750    -0.8220    -0.9030 nb         1 PZF      -0.766000
      2 C4          -7.0690    -0.2860    -0.2240 ca         1 PZF       0.596300
      3 C6          -5.5910     1.0690     1.0510 ca         1 PZF      -0.002000
      4 C13          2.5310    -0.8580     0.3270 c5         1 PZF      -0.041400
      5 C21          3.9930    -0.5740     0.1440 ca         1 PZF      -0.106300
      6 C8          -1.7260     2.3940     1.5930 ca         1 PZF       0.168900
      7 C16          0.3670    -1.2570    -0.5570 c5         1 PZF       0.223800
      8 C19         -8.5390    -1.6490    -1.4750 c3         1 PZF       0.159900
      9 C26          4.4330     0.3400    -0.8150 ca         1 PZF      -0.107000
     10 C24          6.7180    -0.0700    -0.2260 ca         1 PZF       0.166000
     11 C23          6.3240    -0.9790     0.7300 ca         1 PZF      -0.175000
     12 C22          4.9690    -1.2110     0.8930 ca         1 PZF       0.196000
     13 F27          4.6050    -2.1000     1.8280 f          1 PZF      -0.163000
     14 C25          5.7740     0.5870    -0.9970 ca         1 PZF       0.117000
     15 F28          6.1820     1.4660    -1.9190 f          1 PZF      -0.155000
     16 C17          1.8370    -1.4210    -0.9190 c5         1 PZF       0.151500
     17 N20          2.1890    -2.8010    -1.1700 n8         1 PZF      -0.987200
     18 N15          0.3510    -0.0440     0.2380 nh         1 PZF      -0.790300
     19 C14          1.6800     0.3700     0.6580 c5         1 PZF       0.243800
     20 C12         -0.7630     0.6130     0.5840 ca         1 PZF       0.395900
     21 N7          -0.6180     1.7580     1.2660 nb         1 PZF      -0.267000
     22 C11         -2.0470     0.1300     0.2630 ca         1 PZF      -0.289000
     23 C10         -3.1280     0.8980     0.6430 cp         1 PZF       0.222500
     24 N9          -2.9690     2.0490     1.3190 nb         1 PZF      -0.231000
     25 C1          -4.5160     0.5000     0.3530 cp         1 PZF      -0.251500
     26 C5          -6.8770     0.6800     0.7740 ca         1 PZF      -0.197000
     27 O18         -8.3200    -0.6560    -0.4820 os         1 PZF      -0.457300
     28 C2          -4.8350    -0.4360    -0.6190 ca         1 PZF       0.401900
     29 H6          -5.4050     1.8120     1.8150 ha         1 PZF       0.144000
     30 H13          2.3930    -1.5900     1.1250 hc         1 PZF       0.095700
     31 H8          -1.5960     3.3170     2.1510 h5         1 PZF       0.044100
     32 H161        -0.2680    -1.1650    -1.4420 h1         1 PZF       0.059200
     33 H162         0.0230    -2.1250     0.0180 h1         1 PZF       0.059200
     34 H191        -8.1740    -1.3320    -2.4530 h1         1 PZF       0.047367
     35 H192        -8.0630    -2.5940    -1.2120 h1         1 PZF       0.047367
     36 H193        -9.6160    -1.7890    -1.5210 h1         1 PZF       0.047367
     37 H26          3.7200     0.8690    -1.4360 ha         1 PZF       0.140000
     38 H23          7.0540    -1.4970     1.3370 ha         1 PZF       0.157000
     39 H17          2.0570    -0.7540    -1.7670 h1         1 PZF       0.029700
     40 H201         1.6890    -3.1310    -1.9860 hn         1 PZF       0.403000
     41 H202         3.1690    -2.8560    -1.4180 hn         1 PZF       0.403000
     42 H141         1.7100     0.6130     1.7200 h1         1 PZF       0.065200
     43 H142         2.0080     1.2580     0.1080 h1         1 PZF       0.065200
     44 H11         -2.1760    -0.8180    -0.2380 ha         1 PZF       0.129000
     45 H5          -7.7210     1.0960     1.3070 ha         1 PZF       0.140000
     46 H2          -4.0610    -0.8970    -1.2220 h4         1 PZF       0.016100
     47 F29          8.0130     0.1830    -0.4180 f          1 PZF      -0.151000
@<TRIPOS>BOND
     1     1     2 ar  
     2     1    28 ar  
     3     2    26 ar  
     4     2    27 1   
     5     3    25 ar  
     6     3    26 ar  
     7     3    29 1   
     8     4     5 1   
     9     4    16 1   
    10     4    19 1   
    11     4    30 1   
    12     5     9 ar  
    13     5    12 ar  
    14     6    21 ar  
    15     6    24 ar  
    16     6    31 1   
    17     7    16 1   
    18     7    18 1   
    19     7    32 1   
    20     7    33 1   
    21     8    27 1   
    22     8    34 1   
    23     8    35 1   
    24     8    36 1   
    25     9    14 ar  
    26     9    37 1   
    27    10    11 ar  
    28    10    14 ar  
    29    10    47 1   
    30    11    12 ar  
    31    11    38 1   
    32    12    13 1   
    33    14    15 1   
    34    16    17 1   
    35    16    39 1   
    36    17    40 1   
    37    17    41 1   
    38    18    19 1   
    39    18    20 1   
    40    19    42 1   
    41    19    43 1   
    42    20    21 ar  
    43    20    22 ar  
    44    22    23 ar  
    45    22    44 1   
    46    23    24 ar  
    47    23    25 1   
    48    25    28 ar  
    49    26    45 1   
    50    28    46 1   
@<TRIPOS>SUBSTRUCTURE
     1 PZF         1 TEMP              0 ****  ****    0 ROOT
