@<TRIPOS>MOLECULE
PZH
   17    17     1     0     0
SMALL
No Charge or Current Charge


@<TRIPOS>ATOM
      1 N1          -4.4640    -0.1250     0.8170 n8         1 PZH      -1.000200
      2 CB          -3.7830    -0.0450    -0.4900 c3         1 PZH       0.196100
      3 CG          -2.2680    -0.0210    -0.3320 ca         1 PZH      -0.073300
      4 CD1         -1.5470    -1.2270    -0.2130 ca         1 PZH      -0.101500
      5 CE1         -0.1480    -1.2070    -0.0730 ca         1 PZH      -0.087000
      6 CZ           0.5370     0.0190    -0.0530 ca         1 PZH      -0.017900
      7 CE2         -0.1730     1.2250    -0.1710 ca         1 PZH      -0.087000
      8 CD2         -1.5720     1.2050    -0.3100 ca         1 PZH      -0.101500
      9 Br           2.4400     0.0460     0.1370 br         1 PZH      -0.105100
     10 HN11        -4.2310     0.7150     1.3600 hn         1 PZH       0.398500
     11 HN12        -5.4770    -0.0470     0.6700 hn         1 PZH       0.398500
     12 HB1         -4.0790    -0.9100    -1.0990 h1         1 PZH       0.038200
     13 HB2         -4.1170     0.8650    -1.0090 h1         1 PZH       0.038200
     14 HD1         -2.0730    -2.1790    -0.2260 ha         1 PZH       0.124000
     15 HE1          0.4030    -2.1410     0.0190 ha         1 PZH       0.128500
     16 HE2          0.3590     2.1740    -0.1550 ha         1 PZH       0.128500
     17 HD2         -2.1160     2.1430    -0.4020 ha         1 PZH       0.124000
@<TRIPOS>BOND
     1     1     2 1   
     2     1    10 1   
     3     1    11 1   
     4     2     3 1   
     5     2    12 1   
     6     2    13 1   
     7     3     4 ar  
     8     3     8 ar  
     9     4     5 ar  
    10     4    14 1   
    11     5     6 ar  
    12     5    15 1   
    13     6     7 ar  
    14     6     9 1   
    15     7     8 ar  
    16     7    16 1   
    17     8    17 1   
@<TRIPOS>SUBSTRUCTURE
     1 PZH         1 TEMP              0 ****  ****    0 ROOT
