@<TRIPOS>MOLECULE
PZH
   17    17     1     0     0
SMALL
bcc


@<TRIPOS>ATOM
      1 N1          -4.4540    -0.7080     0.4620 n8         1 PZH      -0.889800
      2 CB          -3.7610     0.2800    -0.3430 c3         1 PZH       0.196100
      3 CG          -2.2610     0.1640    -0.2400 ca         1 PZH      -0.073300
      4 CD1         -1.6390    -1.0090     0.1750 ca         1 PZH      -0.119500
      5 CE1         -0.2550    -1.1070     0.2360 ca         1 PZH      -0.105000
      6 CZ           0.5170    -0.0150    -0.1270 ca         1 PZH      -0.017900
      7 CE2         -0.0740     1.1690    -0.5430 ca         1 PZH      -0.105000
      8 CD2         -1.4580     1.2470    -0.5910 ca         1 PZH      -0.119500
      9 BR           2.4030    -0.1360    -0.0470 br         1 PZH      -0.105100
     10 HN11        -4.3660    -0.4720     1.4420 hn         1 PZH       0.343300
     11 HN12        -5.4430    -0.6720     0.2530 hn         1 PZH       0.343300
     12 HB1         -4.0450     0.1200    -1.3870 h1         1 PZH       0.038200
     13 HB2         -4.0420     1.3170    -0.1150 h1         1 PZH       0.038200
     14 HD1         -2.2410    -1.8610     0.4610 ha         1 PZH       0.142000
     15 HE1          0.2030    -2.0300     0.5660 ha         1 PZH       0.146500
     16 HE2          0.5230     2.0260    -0.8220 ha         1 PZH       0.146500
     17 HD2         -1.9160     2.1760    -0.9090 ha         1 PZH       0.142000
@<TRIPOS>BOND
     1     1     2 1   
     2     1    10 1   
     3     1    11 1   
     4     2     3 1   
     5     2    12 1   
     6     2    13 1   
     7     3     4 ar  
     8     3     8 ar  
     9     4     5 ar  
    10     4    14 1   
    11     5     6 ar  
    12     5    15 1   
    13     6     7 ar  
    14     6     9 1   
    15     7     8 ar  
    16     7    16 1   
    17     8    17 1   
@<TRIPOS>SUBSTRUCTURE
     1 PZH         1 TEMP              0 ****  ****    0 ROOT
