@<TRIPOS>MOLECULE
PZI
   20    20     1     0     0
SMALL
abcg2


@<TRIPOS>ATOM
      1 N01          3.2410     0.1720    -0.1720 nt         1 PZI      -0.614000
      2 C02          1.9620     0.1420     0.2250 c          1 PZI       0.581100
      3 O03          1.5960     0.3590     1.3670 o          1 PZI      -0.589100
      4 C04          0.9740    -0.2130    -0.8850 c3         1 PZI       0.023000
      5 N05         -0.3750     0.0310    -0.4920 n          1 PZI      -0.403800
      6 C06         -0.9580     1.3580    -0.5180 c5         1 PZI       0.102000
      7 C07         -2.1950     1.2120     0.3700 c5         1 PZI      -0.091400
      8 C08         -2.5270    -0.2740     0.2900 c5         1 PZI      -0.164400
      9 C09         -1.1980    -0.9260    -0.0210 c          1 PZI       0.572000
     10 O10         -0.9160    -2.1080     0.0950 o          1 PZI      -0.550000
     11 HN01         3.9780     0.3580     0.4880 hn         1 PZI       0.313500
     12 HN0A         3.5070    -0.0080    -1.1250 hn         1 PZI       0.313500
     13 H04          1.2110     0.3490    -1.7920 h1         1 PZI       0.071200
     14 H04A         1.0970    -1.2700    -1.1310 h1         1 PZI       0.071200
     15 H06         -0.2560     2.1010    -0.1370 h1         1 PZI       0.046700
     16 H07         -1.9420     1.4790     1.3970 hc         1 PZI       0.060200
     17 H08         -2.9600    -0.6820     1.2020 hc         1 PZI       0.076200
     18 H08A        -3.2200    -0.4970    -0.5280 hc         1 PZI       0.076200
     19 H06A        -1.2190     1.6400    -1.5430 h1         1 PZI       0.046700
     20 H07A        -3.0100     1.8570     0.0480 hc         1 PZI       0.060200
@<TRIPOS>BOND
     1     1     2 1   
     2     1    11 1   
     3     1    12 1   
     4     2     3 2   
     5     2     4 1   
     6     4     5 1   
     7     4    13 1   
     8     4    14 1   
     9     5     6 1   
    10     5     9 1   
    11     6     7 1   
    12     6    15 1   
    13     6    19 1   
    14     7     8 1   
    15     7    16 1   
    16     7    20 1   
    17     8     9 1   
    18     8    17 1   
    19     8    18 1   
    20     9    10 2   
@<TRIPOS>SUBSTRUCTURE
     1 PZI         1 TEMP              0 ****  ****    0 ROOT
