@<TRIPOS>MOLECULE
PZI
   20    20     1     0     0
SMALL
No Charge or Current Charge


@<TRIPOS>ATOM
      1 N01          3.3040    -0.0460    -0.0990 nt         1 PZI      -0.614000
      2 C02          2.0010     0.1720     0.1920 c          1 PZI       0.581100
      3 O03          1.6860     0.5730     1.3020 o          1 PZI      -0.589100
      4 C04          1.0000    -0.1060    -0.9530 c3         1 PZI       0.023000
      5 N05         -0.4360     0.0900    -0.6130 n          1 PZI      -0.403800
      6 C06         -1.1050     1.4070    -0.6120 c5         1 PZI       0.102000
      7 C07         -2.2170     1.1860     0.4610 c5         1 PZI      -0.091400
      8 C08         -2.5410    -0.3160     0.2420 c5         1 PZI      -0.164400
      9 C09         -1.1620    -0.9250     0.0160 c          1 PZI       0.572000
     10 O10         -0.6830    -1.9570     0.4650 o          1 PZI      -0.550000
     11 HN01         4.0030     0.1220     0.6100 hn         1 PZI       0.313500
     12 HN0A         3.5730    -0.3740    -1.0150 hn         1 PZI       0.313500
     13 H04          1.2620     0.5560    -1.7870 h1         1 PZI       0.071200
     14 H04A         1.1580    -1.1370    -1.2920 h1         1 PZI       0.071200
     15 H06         -0.4230     2.2240    -0.3400 h1         1 PZI       0.046700
     16 H07         -1.8260     1.3620     1.4710 hc         1 PZI       0.060200
     17 H08         -3.0780    -0.8100     1.0590 hc         1 PZI       0.076200
     18 H08A        -3.1100    -0.4080    -0.6900 hc         1 PZI       0.076200
     19 H06A        -1.5330     1.6210    -1.6000 h1         1 PZI       0.046700
     20 H07A        -3.0820     1.8440     0.3190 hc         1 PZI       0.060200
@<TRIPOS>BOND
     1     1     2 1   
     2     1    11 1   
     3     1    12 1   
     4     2     3 2   
     5     2     4 1   
     6     4     5 1   
     7     4    13 1   
     8     4    14 1   
     9     5     6 1   
    10     5     9 1   
    11     6     7 1   
    12     6    15 1   
    13     6    19 1   
    14     7     8 1   
    15     7    16 1   
    16     7    20 1   
    17     8     9 1   
    18     8    17 1   
    19     8    18 1   
    20     9    10 2   
@<TRIPOS>SUBSTRUCTURE
     1 PZI         1 TEMP              0 ****  ****    0 ROOT
