@<TRIPOS>MOLECULE
PZJ
   40    42     1     0     0
SMALL
bcc


@<TRIPOS>ATOM
      1 C13         -0.9840     8.9850     9.3010 c5         1 PZJ       0.171100
      2 C15          2.9270     4.4430     9.7580 ca         1 PZJ       0.146600
      3 C17          5.3340     4.7690     9.6620 ca         1 PZJ      -0.122000
      4 C20          3.1690     3.1280    10.1670 ca         1 PZJ      -0.001600
      5 C01         -0.1250     5.5710     8.0710 c6         1 PZJ       0.175800
      6 C02          0.6860     4.4300     8.6910 c6         1 PZJ       0.219300
      7 C04          1.0660     5.6420    10.7640 c6         1 PZJ       0.219300
      8 C05         -0.3280     6.1520    10.4020 c6         1 PZJ       0.175800
      9 C07         -1.2820     7.6220     8.6630 c5         1 PZJ       0.168500
     10 C08         -2.7550     7.3120     8.9790 c5         1 PZJ      -0.218600
     11 C12         -2.0720     9.9180     8.7900 c5         1 PZJ      -0.179600
     12 C16          4.0410     5.2490     9.5190 ca         1 PZJ      -0.114000
     13 C18          5.5410     3.4500    10.0410 ca         1 PZJ      -0.123000
     14 C19          4.4560     2.6250    10.2930 ca         1 PZJ      -0.117000
     15 N03          1.6520     5.0020     9.6010 nh         1 PZJ      -0.700000
     16 N06         -0.2980     6.6480     9.0400 n3         1 PZJ      -0.744600
     17 O14          0.2830     9.4500     8.9480 oh         1 PZJ      -0.575800
     18 S09         -3.5790     8.9190     8.8680 s6         1 PZJ       0.973000
     19 CL21         1.8370     2.0880    10.5560 cl         1 PZJ      -0.118400
     20 H1          -1.0870     8.9010    10.3930 h1         1 PZJ       0.043700
     21 H3           6.1760     5.4190     9.4650 ha         1 PZJ       0.139000
     22 H4           0.3930     5.9710     7.1960 h1         1 PZJ       0.040200
     23 H5          -1.0850     5.1630     7.7240 h1         1 PZJ       0.040200
     24 H6           0.0120     3.7130     9.1750 h1         1 PZJ       0.042700
     25 H7           1.2030     3.8860     7.9010 h1         1 PZJ       0.042700
     26 H8           1.6970     6.4820    11.0690 h1         1 PZJ       0.042700
     27 H9           0.9830     4.9650    11.6260 h1         1 PZJ       0.042700
     28 H10         -1.0770     5.3590    10.5400 h1         1 PZJ       0.040200
     29 H11         -0.5970     6.9480    11.0970 h1         1 PZJ       0.040200
     30 H12         -1.1920     7.7590     7.5790 h1         1 PZJ       0.077700
     31 H14         -3.2280     6.6240     8.2800 h1         1 PZJ       0.112700
     32 H15         -2.8940     6.9500     9.9980 h1         1 PZJ       0.112700
     33 H16         -2.2200    10.8170     9.3880 h1         1 PZJ       0.121200
     34 H17         -1.8970    10.1860     7.7470 h1         1 PZJ       0.121200
     35 H18          3.8660     6.2700     9.2050 ha         1 PZJ       0.146000
     36 H19          6.5440     3.0590    10.1460 ha         1 PZJ       0.138000
     37 H20          4.6090     1.5990    10.6000 ha         1 PZJ       0.147000
     38 H22          0.8670     8.6780     8.9920 ho         1 PZJ       0.434000
     39 O10         -4.2880     9.1940    10.1170 o          1 PZJ      -0.579800
     40 O11         -4.3160     9.0340     7.6120 o          1 PZJ      -0.579800
@<TRIPOS>BOND
     1     1     9 1   
     2     1    11 1   
     3     1    17 1   
     4     1    20 1   
     5     2     4 ar  
     6     2    12 ar  
     7     2    15 1   
     8     3    12 ar  
     9     3    13 ar  
    10     3    21 1   
    11     4    14 ar  
    12     4    19 1   
    13     5     6 1   
    14     5    16 1   
    15     5    22 1   
    16     5    23 1   
    17     6    15 1   
    18     6    24 1   
    19     6    25 1   
    20     7     8 1   
    21     7    15 1   
    22     7    26 1   
    23     7    27 1   
    24     8    16 1   
    25     8    28 1   
    26     8    29 1   
    27     9    10 1   
    28     9    16 1   
    29     9    30 1   
    30    10    18 1   
    31    10    31 1   
    32    10    32 1   
    33    11    18 1   
    34    11    33 1   
    35    11    34 1   
    36    12    35 1   
    37    13    14 ar  
    38    13    36 1   
    39    14    37 1   
    40    17    38 1   
    41    18    39 2   
    42    18    40 2   
@<TRIPOS>SUBSTRUCTURE
     1 PZJ         1 TEMP              0 ****  ****    0 ROOT
