@<TRIPOS>MOLECULE
PZJ
   40    42     1     0     0
SMALL
No Charge or Current Charge


@<TRIPOS>ATOM
      1 C13         -1.3000     9.2020     9.3200 c5         1 PZJ       0.194300
      2 C15          3.0030     4.2060     9.8970 ca         1 PZJ       0.285000
      3 C17          5.4480     4.3760     9.9080 ca         1 PZJ      -0.104000
      4 C20          3.1240     2.7940    10.0270 ca         1 PZJ       0.090000
      5 C01          0.0510     5.7670     8.0880 c6         1 PZJ       0.175800
      6 C02          0.7340     4.5220     8.7660 c6         1 PZJ       0.219300
      7 C04          1.3860     6.0070    10.7170 c6         1 PZJ       0.219300
      8 C05         -0.0240     6.6200    10.4240 c6         1 PZJ       0.175800
      9 C07         -1.3190     7.8460     8.5320 c5         1 PZJ       0.168500
     10 C08         -2.6530     7.1970     8.9580 c5         1 PZJ      -0.329400
     11 C12         -2.5500     9.9110     8.7640 c5         1 PZJ      -0.290400
     12 C16          4.1800     4.9800     9.8410 ca         1 PZJ      -0.096000
     13 C18          5.5560     2.9820    10.0340 ca         1 PZJ      -0.105000
     14 C19          4.3960     2.1950    10.0950 ca         1 PZJ      -0.099000
     15 N03          1.7440     4.8620     9.8180 nh         1 PZJ      -0.838400
     16 N06         -0.1860     6.9650     8.9700 n3         1 PZJ      -0.744600
     17 O14         -0.1160     9.9400     9.0500 oh         1 PZJ      -0.638000
     18 S09         -3.8530     8.5930     8.7710 s6         1 PZJ       1.053000
     19 Cl21         1.7110     1.7340    10.1500 cl         1 PZJ      -0.210000
     20 H1          -1.4080     9.0430    10.4020 h1         1 PZJ       0.043700
     21 H3           6.3460     4.9890     9.8590 ha         1 PZJ       0.121000
     22 H4           0.6790     6.0790     7.2420 h1         1 PZJ       0.040200
     23 H5          -0.8960     5.4200     7.6500 h1         1 PZJ       0.040200
     24 H6          -0.0580     3.9110     9.2220 h1         1 PZJ       0.042700
     25 H7           1.1910     3.9050     7.9780 h1         1 PZJ       0.042700
     26 H8           2.1280     6.8100    10.6080 h1         1 PZJ       0.042700
     27 H9           1.4130     5.6810    11.7670 h1         1 PZJ       0.042700
     28 H10         -0.7940     5.8980    10.7330 h1         1 PZJ       0.040200
     29 H11         -0.1380     7.5040    11.0640 h1         1 PZJ       0.040200
     30 H12         -1.2850     8.0270     7.4460 h1         1 PZJ       0.077700
     31 H14         -2.9810     6.3750     8.3150 h1         1 PZJ       0.112700
     32 H15         -2.6910     6.9030    10.0120 h1         1 PZJ       0.112700
     33 H16         -2.9050    10.7360     9.3880 h1         1 PZJ       0.121200
     34 H17         -2.4340    10.2360     7.7250 h1         1 PZJ       0.121200
     35 H18          4.1120     6.0580     9.7300 ha         1 PZJ       0.128000
     36 H19          6.5370     2.5140    10.0870 ha         1 PZJ       0.120000
     37 H20          4.4790     1.1160    10.2000 ha         1 PZJ       0.129000
     38 H22          0.5830     9.2510     8.9700 ho         1 PZJ       0.473000
     39 O10         -4.6740     8.7020     9.9830 o          1 PZJ      -0.509000
     40 O11         -4.4960     8.5270     7.4530 o          1 PZJ      -0.509000
@<TRIPOS>BOND
     1     1     9 1   
     2     1    11 1   
     3     1    17 1   
     4     1    20 1   
     5     2     4 ar  
     6     2    12 ar  
     7     2    15 1   
     8     3    12 ar  
     9     3    13 ar  
    10     3    21 1   
    11     4    14 ar  
    12     4    19 1   
    13     5     6 1   
    14     5    16 1   
    15     5    22 1   
    16     5    23 1   
    17     6    15 1   
    18     6    24 1   
    19     6    25 1   
    20     7     8 1   
    21     7    15 1   
    22     7    26 1   
    23     7    27 1   
    24     8    16 1   
    25     8    28 1   
    26     8    29 1   
    27     9    10 1   
    28     9    16 1   
    29     9    30 1   
    30    10    18 1   
    31    10    31 1   
    32    10    32 1   
    33    11    18 1   
    34    11    33 1   
    35    11    34 1   
    36    12    35 1   
    37    13    14 ar  
    38    13    36 1   
    39    14    37 1   
    40    17    38 1   
    41    18    39 2   
    42    18    40 2   
@<TRIPOS>SUBSTRUCTURE
     1 PZJ         1 TEMP              0 ****  ****    0 ROOT
