@<TRIPOS>MOLECULE
PZK
   33    35     1     0     0
SMALL
bcc


@<TRIPOS>ATOM
      1 C10         20.3700    15.0090    34.0620 cc         1 PZK      -0.375800
      2 N12         21.0460    14.4530    36.0640 na         1 PZK       0.112400
      3 C15         21.3780    13.7280    37.2760 c3         1 PZK       0.105600
      4 C17         23.7360    13.0080    36.7750 ca         1 PZK      -0.125000
      5 C20         24.7150    14.5700    38.8120 ca         1 PZK       0.134900
      6 C21         23.3520    14.5520    38.5790 ca         1 PZK      -0.137000
      7 C02         18.7300    14.2570    30.7310 ca         1 PZK       0.759200
      8 N03         18.8730    15.4630    30.1720 nb         1 PZK      -0.807000
      9 C04         19.4740    16.3840    30.8950 ca         1 PZK       0.724900
     10 N05         19.9590    16.2690    32.1180 nb         1 PZK      -0.768000
     11 C06         19.8360    15.0800    32.7170 ca         1 PZK       0.648800
     12 C07         19.2190    14.0180    32.0450 ca         1 PZK      -0.368600
     13 C08         19.0470    12.7340    32.6080 cg         1 PZK       0.265800
     14 N09         18.8910    11.6660    33.0190 n1         1 PZK      -0.403800
     15 C11         20.4800    13.9570    34.9610 cd         1 PZK      -0.084300
     16 N13         21.3230    15.7550    35.9650 nd         1 PZK      -0.523800
     17 C14         20.9240    16.1040    34.7660 cc         1 PZK       0.366200
     18 C16         22.8580    13.7600    37.5510 ca         1 PZK      -0.084300
     19 C18         25.0990    13.0510    37.0270 ca         1 PZK      -0.103000
     20 C19         25.6050    13.8380    38.0540 ca         1 PZK      -0.157000
     21 H1          20.8200    14.1620    38.1060 h1         1 PZK       0.070700
     22 H2          21.0290    12.7050    37.1410 h1         1 PZK       0.070700
     23 H3          23.3540    12.3880    35.9740 ha         1 PZK       0.136000
     24 H4          22.6870    15.1450    39.1940 ha         1 PZK       0.155000
     25 H5          17.7950    13.5370    29.0900 hn         1 PZK       0.452800
     26 H6          17.9610    12.3840    30.3580 hn         1 PZK       0.452800
     27 H7          19.5850    17.3570    30.4280 h5         1 PZK       0.049100
     28 H8          20.2110    12.9160    34.9040 h4         1 PZK       0.184000
     29 H9          21.0310    17.1210    34.4240 h4         1 PZK       0.058100
     30 H10         25.7790    12.4650    36.4230 ha         1 PZK       0.139000
     31 H11         26.6670    13.8780    38.2580 ha         1 PZK       0.152000
     32 F22         25.1850    15.3320    39.8120 f          1 PZK      -0.140900
     33 N01         18.1180    13.3180    30.0180 nv         1 PZK      -0.958500
@<TRIPOS>BOND
     1     1    11 1   
     2     1    15 2   
     3     1    17 1   
     4     2     3 1   
     5     2    15 1   
     6     2    16 1   
     7     3    18 1   
     8     3    21 1   
     9     3    22 1   
    10     4    18 ar  
    11     4    19 ar  
    12     4    23 1   
    13     5     6 ar  
    14     5    20 ar  
    15     5    32 1   
    16     6    18 ar  
    17     6    24 1   
    18     7     8 ar  
    19     7    12 ar  
    20     7    33 1   
    21     8     9 ar  
    22     9    10 ar  
    23     9    27 1   
    24    10    11 ar  
    25    11    12 ar  
    26    12    13 1   
    27    13    14 3   
    28    15    28 1   
    29    16    17 2   
    30    17    29 1   
    31    19    20 ar  
    32    19    30 1   
    33    20    31 1   
    34    25    33 1   
    35    26    33 1   
@<TRIPOS>SUBSTRUCTURE
     1 PZK         1 TEMP              0 ****  ****    0 ROOT
