@<TRIPOS>MOLECULE
PZK
   33    35     1     0     0
SMALL
No Charge or Current Charge


@<TRIPOS>ATOM
      1 C10         19.8170    15.1450    34.5410 cc         1 PZK      -0.310500
      2 N12         20.5260    14.5570    36.5230 na         1 PZK       0.133800
      3 C15         21.1800    13.8410    37.6340 c3         1 PZK       0.134900
      4 C17         23.2930    12.4220    37.7230 ca         1 PZK      -0.107000
      5 C20         24.8790    14.5770    36.8830 ca         1 PZK       0.170000
      6 C21         23.4950    14.7490    37.0410 ca         1 PZK      -0.119000
      7 C02         19.5740    14.4560    30.8200 ca         1 PZK       0.430900
      8 N03         19.5640    15.7090    30.3550 nb         1 PZK      -0.281000
      9 C04         19.6120    16.6860    31.2770 ca         1 PZK       0.198900
     10 N05         19.6730    16.5230    32.6110 nb         1 PZK      -0.242000
     11 C06         19.6780    15.2590    33.0840 ca         1 PZK       0.320500
     12 C07         19.6360    14.1590    32.1910 ca         1 PZK      -0.238000
     13 C08         19.5910    12.8020    32.6460 cg         1 PZK       0.355000
     14 N09         19.5500    11.6900    33.0000 n1         1 PZK      -0.493000
     15 C11         20.5790    14.2010    35.1710 cd         1 PZK      -0.117000
     16 N13         19.8020    15.7240    36.7450 nd         1 PZK      -0.523800
     17 C14         19.4140    16.0540    35.5300 cc         1 PZK       0.300900
     18 C16         22.6880    13.6680    37.4590 ca         1 PZK      -0.084300
     19 C18         24.6800    12.2540    37.5640 ca         1 PZK      -0.085000
     20 C19         25.4750    13.3330    37.1420 ca         1 PZK      -0.139000
     21 H1          20.9910    14.3880    38.5660 h1         1 PZK       0.070700
     22 H2          20.7020    12.8590    37.7270 h1         1 PZK       0.070700
     23 H3          22.6880    11.5790    38.0510 ha         1 PZK       0.118000
     24 H4          23.0530    15.7210    36.8380 ha         1 PZK       0.137000
     25 H5          19.2750    13.8070    28.9000 hn         1 PZK       0.508000
     26 H6          19.2750    12.5490    30.0890 hn         1 PZK       0.508000
     27 H7          19.6060    17.7100    30.9080 h5         1 PZK       0.049100
     28 H8          21.1560    13.3580    34.8080 h4         1 PZK       0.166000
     29 H9          18.8440    16.9640    35.3930 h4         1 PZK       0.058100
     30 H10         25.1380    11.2880    37.7680 ha         1 PZK       0.121000
     31 H11         26.5480    13.2090    37.0170 ha         1 PZK       0.134000
     32 F22         25.6430    15.6160    36.4800 f          1 PZK      -0.176000
     33 N01         19.5130    13.5080    29.8440 nv         1 PZK      -1.068900
@<TRIPOS>BOND
     1     1    11 1   
     2     1    15 2   
     3     1    17 1   
     4     2     3 1   
     5     2    15 1   
     6     2    16 1   
     7     3    18 1   
     8     3    21 1   
     9     3    22 1   
    10     4    18 ar  
    11     4    19 ar  
    12     4    23 1   
    13     5     6 ar  
    14     5    20 ar  
    15     5    32 1   
    16     6    18 ar  
    17     6    24 1   
    18     7     8 ar  
    19     7    12 ar  
    20     7    33 1   
    21     8     9 ar  
    22     9    10 ar  
    23     9    27 1   
    24    10    11 ar  
    25    11    12 ar  
    26    12    13 1   
    27    13    14 3   
    28    15    28 1   
    29    16    17 2   
    30    17    29 1   
    31    19    20 ar  
    32    19    30 1   
    33    20    31 1   
    34    25    33 1   
    35    26    33 1   
@<TRIPOS>SUBSTRUCTURE
     1 PZK         1 TEMP              0 ****  ****    0 ROOT
