@<TRIPOS>MOLECULE
PZL
   38    41     1     0     0
SMALL
abcg2


@<TRIPOS>ATOM
      1 N19         -3.6570    -4.6220     2.0730 n1         1 PZL      -0.435000
      2 C16         -3.0460    -3.8260     1.5080 cg         1 PZL       0.318000
      3 C13         -2.2840    -2.8400     0.8090 ca         1 PZL       0.021000
      4 C12         -1.3260    -3.2540    -0.1140 ca         1 PZL      -0.092000
      5 C11         -0.6010    -2.2780    -0.7720 ca         1 PZL       0.137000
      6 CL15         0.6070    -2.7440    -1.9110 cl         1 PZL      -0.170000
      7 C10         -0.8110    -0.9280    -0.5390 ca         1 PZL      -0.148000
      8 C14         -2.5070    -1.4950     1.0830 ca         1 PZL      -0.090000
      9 C9          -1.7560    -0.5490     0.4050 ca         1 PZL       0.133100
     10 O8          -2.0100     0.7580     0.7020 os         1 PZL      -0.217200
     11 C3          -1.0320     1.6750     0.4810 ca         1 PZL       0.080100
     12 C4          -1.2670     2.7900    -0.3110 ca         1 PZL      -0.010900
     13 BR17        -2.9550     3.0120    -1.0960 br         1 PZL      -0.049100
     14 C2           0.2220     1.5300     1.0600 ca         1 PZL       0.147000
     15 F5           0.4180     0.4660     1.8470 f          1 PZL      -0.167000
     16 C6           1.2680     2.3970     0.8170 ca         1 PZL      -0.095300
     17 C7           0.9970     3.5090     0.0260 ca         1 PZL      -0.078000
     18 C1          -0.2600     3.7210    -0.5190 ca         1 PZL      -0.085000
     19 C18          2.6580     2.0790     1.3030 c3         1 PZL      -0.029400
     20 C26          3.2840     1.0740     0.3860 cc         1 PZL       0.347900
     21 N27          3.8840     1.4500    -0.7150 nd         1 PZL      -0.485100
     22 N28          4.2730     0.3600    -1.3750 na         1 PZL      -0.161100
     23 C24          3.9310    -0.7650    -0.7150 ca         1 PZL       0.312500
     24 N20          4.1740    -2.0150    -1.0810 nb         1 PZL      -0.322000
     25 C25          3.2740    -0.3510     0.4590 ca         1 PZL      -0.220900
     26 C23          2.8580    -1.3670     1.3040 ca         1 PZL      -0.030000
     27 C22          3.1330    -2.6520     0.8690 ca         1 PZL       0.226900
     28 N21          3.7620    -2.9500    -0.2750 nb         1 PZL      -0.275000
     29 H12         -1.1540    -4.3040    -0.3030 ha         1 PZL       0.147000
     30 H10         -0.2350    -0.1970    -1.0910 ha         1 PZL       0.145000
     31 H14         -3.2440    -1.1910     1.8150 ha         1 PZL       0.149000
     32 H7           1.7870     4.2200    -0.1770 ha         1 PZL       0.132000
     33 H1          -0.4410     4.5960    -1.1290 ha         1 PZL       0.141000
     34 H18          3.2580     2.9880     1.3040 hc         1 PZL       0.075700
     35 H18A         2.6460     1.7040     2.3280 hc         1 PZL       0.075700
     36 HN28         4.7610     0.4430    -2.2540 hn         1 PZL       0.397000
     37 H23          2.3630    -1.1980     2.2480 ha         1 PZL       0.142000
     38 H22          2.8430    -3.5080     1.4620 h4         1 PZL       0.034100
@<TRIPOS>BOND
     1     1     2 3   
     2     2     3 1   
     3     3     4 ar  
     4     3     8 ar  
     5     4     5 ar  
     6     4    29 1   
     7     5     6 1   
     8     5     7 ar  
     9     7     9 ar  
    10     7    30 1   
    11     8     9 ar  
    12     8    31 1   
    13     9    10 1   
    14    10    11 1   
    15    11    12 ar  
    16    11    14 ar  
    17    12    13 1   
    18    12    18 ar  
    19    14    15 1   
    20    14    16 ar  
    21    16    17 ar  
    22    16    19 1   
    23    17    18 ar  
    24    17    32 1   
    25    18    33 1   
    26    19    20 1   
    27    19    34 1   
    28    19    35 1   
    29    20    21 2   
    30    20    25 1   
    31    21    22 1   
    32    22    23 1   
    33    22    36 1   
    34    23    24 ar  
    35    23    25 ar  
    36    24    28 ar  
    37    25    26 ar  
    38    26    27 ar  
    39    26    37 1   
    40    27    28 ar  
    41    27    38 1   
@<TRIPOS>SUBSTRUCTURE
     1 PZL         1 TEMP              0 ****  ****    0 ROOT
