@<TRIPOS>MOLECULE
PZL
   38    41     1     0     0
SMALL
No Charge or Current Charge


@<TRIPOS>ATOM
      1 N19         -4.6020    -4.3180     2.6640 n1         1 PZL      -0.435000
      2 C16         -3.8680    -3.6660     2.0310 cg         1 PZL       0.318000
      3 C13         -2.9600    -2.8740     1.2480 ca         1 PZL       0.021000
      4 C12         -2.0420    -3.4980     0.3800 ca         1 PZL      -0.092000
      5 C11         -1.1600    -2.7200    -0.3870 ca         1 PZL       0.137000
      6 Cl15        -0.0200    -3.5010    -1.4740 cl         1 PZL      -0.170000
      7 C10         -1.1830    -1.3210    -0.2930 ca         1 PZL      -0.148000
      8 C14         -2.9820    -1.4680     1.3430 ca         1 PZL      -0.090000
      9 C9          -2.0920    -0.6930     0.5820 ca         1 PZL       0.133100
     10 O8          -2.1400     0.6790     0.7020 os         1 PZL      -0.217200
     11 C3          -1.0540     1.4800     0.4190 ca         1 PZL       0.080100
     12 C4          -1.1540     2.4530    -0.5920 ca         1 PZL      -0.010900
     13 Br17        -2.7890     2.6810    -1.5680 br         1 PZL      -0.049100
     14 C2           0.1590     1.3260     1.1270 ca         1 PZL       0.147000
     15 F5           0.2410     0.4080     2.1210 f          1 PZL      -0.167000
     16 C6           1.2820     2.1200     0.8030 ca         1 PZL      -0.095300
     17 C7           1.1670     3.0850    -0.2170 ca         1 PZL      -0.078000
     18 C1          -0.0460     3.2550    -0.9080 ca         1 PZL      -0.085000
     19 C18          2.6240     1.9460     1.5150 c3         1 PZL      -0.029400
     20 C26          3.6840     1.3700     0.6130 cc         1 PZL       0.347900
     21 N27          4.6930     2.1020     0.1200 nd         1 PZL      -0.485100
     22 N28          5.3920     1.1810    -0.6750 na         1 PZL      -0.161100
     23 C24          4.8340    -0.0790    -0.6760 ca         1 PZL       0.312500
     24 N20          5.1770    -1.2340    -1.2890 nb         1 PZL      -0.322000
     25 C25          3.7410     0.0100     0.1400 ca         1 PZL      -0.220900
     26 C23          2.9290    -1.1140     0.3730 ca         1 PZL      -0.030000
     27 C22          3.3210    -2.3000    -0.2850 ca         1 PZL       0.226900
     28 N21          4.4190    -2.3420    -1.0920 nb         1 PZL      -0.275000
     29 H12         -2.0130    -4.5820     0.2960 ha         1 PZL       0.147000
     30 H10         -0.5010    -0.7360    -0.9030 ha         1 PZL       0.145000
     31 H14         -3.6850    -0.9740     2.0100 ha         1 PZL       0.149000
     32 H7           2.0220     3.7060    -0.4800 ha         1 PZL       0.132000
     33 H1          -0.1210     4.0030    -1.6940 ha         1 PZL       0.141000
     34 H18          2.9620     2.9170     1.8950 hc         1 PZL       0.075700
     35 H18A         2.5320     1.3070     2.4000 hc         1 PZL       0.075700
     36 HN28         6.2280     1.4450    -1.1910 hn         1 PZL       0.397000
     37 H23          2.0570    -1.0890     1.0180 ha         1 PZL       0.142000
     38 H22          2.7600    -3.2260    -0.1650 h4         1 PZL       0.034100
@<TRIPOS>BOND
     1     1     2 3   
     2     2     3 1   
     3     3     4 ar  
     4     3     8 ar  
     5     4     5 ar  
     6     4    29 1   
     7     5     6 1   
     8     5     7 ar  
     9     7     9 ar  
    10     7    30 1   
    11     8     9 ar  
    12     8    31 1   
    13     9    10 1   
    14    10    11 1   
    15    11    12 ar  
    16    11    14 ar  
    17    12    13 1   
    18    12    18 ar  
    19    14    15 1   
    20    14    16 ar  
    21    16    17 ar  
    22    16    19 1   
    23    17    18 ar  
    24    17    32 1   
    25    18    33 1   
    26    19    20 1   
    27    19    34 1   
    28    19    35 1   
    29    20    21 2   
    30    20    25 1   
    31    21    22 1   
    32    22    23 1   
    33    22    36 1   
    34    23    24 ar  
    35    23    25 ar  
    36    24    28 ar  
    37    25    26 ar  
    38    26    27 ar  
    39    26    37 1   
    40    27    28 ar  
    41    27    38 1   
@<TRIPOS>SUBSTRUCTURE
     1 PZL         1 TEMP              0 ****  ****    0 ROOT
