@<TRIPOS>MOLECULE
PZM
   21    21     1     0     0
SMALL
No Charge or Current Charge


@<TRIPOS>ATOM
      1 N1           3.6060     0.3040    -0.7760 n8         1 PZM      -0.997200
      2 CB           2.9250     0.0890     0.5110 c3         1 PZM       0.203100
      3 CG           1.4180    -0.0140     0.3260 ca         1 PZM      -0.127300
      4 CD1          0.7980    -1.2740     0.2170 ca         1 PZM      -0.061000
      5 CE1         -0.5950    -1.3650     0.0540 ca         1 PZM      -0.175000
      6 CZ          -1.3830    -0.2040    -0.0010 ca         1 PZM       0.139100
      7 CE2         -0.7660     1.0610     0.1080 ca         1 PZM      -0.175000
      8 CD2          0.6290     1.1510     0.2710 ca         1 PZM      -0.061000
      9 O1          -2.7450    -0.3570    -0.1620 os         1 PZM      -0.343100
     10 CF1         -3.6400     0.7680    -0.2310 c3         1 PZM       0.148900
     11 HN11         4.6210     0.2730    -0.6230 hn         1 PZM       0.394500
     12 HN12         3.4250    -0.5070    -1.3790 hn         1 PZM       0.394500
     13 HB1          3.1630     0.9250     1.1830 h1         1 PZM       0.031700
     14 HB2          3.3100    -0.8350     0.9660 h1         1 PZM       0.031700
     15 HD1          1.3950    -2.1830     0.2590 ha         1 PZM       0.118000
     16 HE1         -1.0670    -2.3400    -0.0300 ha         1 PZM       0.120500
     17 HE2         -1.3450     1.9780     0.0690 ha         1 PZM       0.120500
     18 HD2          1.0980     2.1300     0.3530 ha         1 PZM       0.118000
     19 HF11        -3.3890     1.4150    -1.0810 h1         1 PZM       0.039700
     20 HF12        -4.6740     0.4240    -0.3600 h1         1 PZM       0.039700
     21 HF13        -3.5920     1.3610     0.6910 h1         1 PZM       0.039700
@<TRIPOS>BOND
     1     1     2 1   
     2     1    11 1   
     3     1    12 1   
     4     2     3 1   
     5     2    13 1   
     6     2    14 1   
     7     3     4 ar  
     8     3     8 ar  
     9     4     5 ar  
    10     4    15 1   
    11     5     6 ar  
    12     5    16 1   
    13     6     7 ar  
    14     6     9 1   
    15     7     8 ar  
    16     7    17 1   
    17     8    18 1   
    18     9    10 1   
    19    10    19 1   
    20    10    20 1   
    21    10    21 1   
@<TRIPOS>SUBSTRUCTURE
     1 PZM         1 TEMP              0 ****  ****    0 ROOT
