@<TRIPOS>MOLECULE
PZM
   21    21     1     0     0
SMALL
abcg2


@<TRIPOS>ATOM
      1 N1           3.5190     0.7470    -0.5590 n8         1 PZM      -0.997200
      2 CB           2.8950    -0.1150     0.4320 c3         1 PZM       0.203100
      3 CG           1.3970    -0.1550     0.2750 ca         1 PZM      -0.127300
      4 CD1          0.6940    -1.3530     0.3830 ca         1 PZM      -0.061000
      5 CE1         -0.6860    -1.3970     0.2760 ca         1 PZM      -0.175000
      6 CZ          -1.4070    -0.2260     0.0470 ca         1 PZM       0.139100
      7 CE2         -0.7200     0.9810    -0.0740 ca         1 PZM      -0.175000
      8 CD2          0.6650     1.0020     0.0390 ca         1 PZM      -0.061000
      9 O1          -2.7470    -0.3540    -0.0480 os         1 PZM      -0.343100
     10 CF1         -3.5220     0.8150    -0.2190 c3         1 PZM       0.148900
     11 HN11         4.5090     0.8190    -0.3590 hn         1 PZM       0.394500
     12 HN12         3.4510     0.3140    -1.4720 hn         1 PZM       0.394500
     13 HB1          3.1430     0.2850     1.4210 h1         1 PZM       0.031700
     14 HB2          3.2750    -1.1460     0.4310 h1         1 PZM       0.031700
     15 HD1          1.2370    -2.2760     0.5540 ha         1 PZM       0.118000
     16 HE1         -1.2110    -2.3420     0.3570 ha         1 PZM       0.120500
     17 HE2         -1.2430     1.9100    -0.2560 ha         1 PZM       0.120500
     18 HD2          1.1820     1.9470    -0.0680 ha         1 PZM       0.118000
     19 HF11        -3.3030     1.3190    -1.1650 h1         1 PZM       0.039700
     20 HF12        -4.5620     0.5000    -0.2250 h1         1 PZM       0.039700
     21 HF13        -3.3740     1.5260     0.5970 h1         1 PZM       0.039700
@<TRIPOS>BOND
     1     1     2 1   
     2     1    11 1   
     3     1    12 1   
     4     2     3 1   
     5     2    13 1   
     6     2    14 1   
     7     3     4 ar  
     8     3     8 ar  
     9     4     5 ar  
    10     4    15 1   
    11     5     6 ar  
    12     5    16 1   
    13     6     7 ar  
    14     6     9 1   
    15     7     8 ar  
    16     7    17 1   
    17     8    18 1   
    18     9    10 1   
    19    10    19 1   
    20    10    20 1   
    21    10    21 1   
@<TRIPOS>SUBSTRUCTURE
     1 PZM         1 TEMP              0 ****  ****    0 ROOT
