@<TRIPOS>MOLECULE
PZN
   85    86     1     0     0
SMALL
bcc


@<TRIPOS>ATOM
      1 C1          12.1570    -3.9540     0.5160 c3         1 PZN      -0.087100
      2 C2          10.9420    -3.5750    -0.3190 c3         1 PZN      -0.075400
      3 C3           9.9690    -2.6740     0.4320 c3         1 PZN      -0.075400
      4 C4           8.7590    -2.2640    -0.3960 c3         1 PZN      -0.075400
      5 C5           7.8110    -1.3400     0.3600 c3         1 PZN      -0.077400
      6 C6           6.6500    -0.8770    -0.5070 c3         1 PZN       0.170800
      7 N1           5.6650    -0.0820     0.2110 n3         1 PZN      -0.700600
      8 C7           6.2270     1.1630     0.6990 c3         1 PZN       0.147100
      9 C8           4.5070     0.1700    -0.6120 c3         1 PZN       0.070800
     10 C9           3.2630     0.5080     0.1860 c          1 PZN       0.618100
     11 O1           3.2160     0.3910     1.3870 o          1 PZN      -0.535100
     12 C10          2.0130     0.8170    -0.6310 c3         1 PZN       0.041700
     13 N2           0.9880     1.3150     0.2560 ns         1 PZN      -0.517900
     14 C11          2.2520     1.7690    -1.7970 c3         1 PZN      -0.235400
     15 C12          2.8690     3.0990    -1.3370 c          1 PZN       0.920600
     16 O2           2.8310     4.0500    -2.1370 o          1 PZN      -0.838300
     17 O3           3.3770     3.0990    -0.1940 o          1 PZN      -0.838300
     18 C13         -0.3190     1.2060    -0.0020 c          1 PZN       0.673100
     19 C14         -1.2440     1.9960     0.9370 c3         1 PZN       0.017700
     20 O4          -0.7740     0.5900    -0.9530 o          1 PZN      -0.634100
     21 C15         -0.7580     2.2080     2.3730 c3         1 PZN      -0.089400
     22 C16         -1.7870     2.9220     3.2390 c3         1 PZN      -0.088100
     23 N3          -2.5750     1.4090     0.8650 n          1 PZN      -0.301000
     24 C18         -4.0850    -0.4090     1.0050 cc         1 PZN       0.594200
     25 N4          -5.0580     0.2990     0.5370 nd         1 PZN      -0.650300
     26 C19         -4.8420     1.6080     0.2060 cd         1 PZN       0.063400
     27 C24         -3.6180     2.1550     0.3520 cc         1 PZN      -0.064400
     28 C17         -2.7240     0.1160     1.2300 c          1 PZN       0.567200
     29 O5          -1.8160    -0.5730     1.6840 o          1 PZN      -0.627500
     30 C20         -6.0430     2.3600    -0.3300 c3         1 PZN       0.028200
     31 C23         -5.7000     3.8040    -0.6890 c3         1 PZN      -0.081433
     32 C21         -6.5600     1.6450    -1.5840 c3         1 PZN      -0.081433
     33 C22         -7.1400     2.3620     0.7410 c3         1 PZN      -0.081433
     34 N5          -4.2360    -1.7170     1.3050 nu         1 PZN      -0.842200
     35 C25         -5.4070    -2.4750     0.9670 c3         1 PZN       0.197500
     36 C26         -5.1670    -3.3750    -0.2030 cc         1 PZN       0.201300
     37 C27         -4.6230    -3.0720    -1.4920 cc         1 PZN       0.264300
     38 N7          -4.6120    -4.1720    -2.1740 nd         1 PZN      -0.352300
     39 O6          -5.1140    -5.1280    -1.3770 os         1 PZN       0.091600
     40 N6          -5.4450    -4.6370    -0.1750 nd         1 PZN      -0.347300
     41 C28         -4.1350    -1.7810    -2.0360 c3         1 PZN      -0.143400
     42 H11         12.7060    -3.0670     0.8360 hc         1 PZN       0.027700
     43 H12         11.8630    -4.4990     1.4150 hc         1 PZN       0.027700
     44 H13         12.8480    -4.5870    -0.0420 hc         1 PZN       0.027700
     45 H21         11.2660    -3.0700    -1.2340 hc         1 PZN       0.034700
     46 H22         10.4210    -4.4810    -0.6430 hc         1 PZN       0.034700
     47 H31          9.6360    -3.1830     1.3430 hc         1 PZN       0.036700
     48 H32         10.4980    -1.7740     0.7680 hc         1 PZN       0.036700
     49 H41          9.0970    -1.7650    -1.3100 hc         1 PZN       0.034200
     50 H42          8.2190    -3.1600    -0.7230 hc         1 PZN       0.034200
     51 H51          7.4200    -1.8530     1.2440 hc         1 PZN       0.046200
     52 H52          8.3820    -0.4820     0.7260 hc         1 PZN       0.046200
     53 H61          7.0490    -0.3290    -1.3800 h1         1 PZN       0.020200
     54 H62          6.1440    -1.7620    -0.9050 h1         1 PZN       0.020200
     55 H71          5.4550     1.7760     1.1570 h1         1 PZN       0.038033
     56 H72          6.9850     0.9750     1.4580 h1         1 PZN       0.038033
     57 H73          6.6920     1.7580    -0.1030 h1         1 PZN       0.038033
     58 H81          4.6880     0.9480    -1.3660 h1         1 PZN       0.054200
     59 H82          4.2580    -0.7360    -1.1780 h1         1 PZN       0.054200
     60 H10          1.6770    -0.1490    -1.0280 h1         1 PZN       0.057700
     61 HN2          1.3010     1.8820     1.0260 hn         1 PZN       0.342500
     62 H111         2.9060     1.3030    -2.5410 hc         1 PZN       0.041200
     63 H112         1.3080     1.9430    -2.3180 hc         1 PZN       0.041200
     64 H14         -1.3330     2.9860     0.4790 h1         1 PZN       0.076700
     65 H151        -0.4680     1.2620     2.8290 hc         1 PZN       0.073200
     66 H152         0.1370     2.8330     2.3360 hc         1 PZN       0.073200
     67 H161        -2.0930     3.8700     2.7940 hc         1 PZN       0.031033
     68 H162        -2.6830     2.3210     3.3950 hc         1 PZN       0.031033
     69 H163        -1.3650     3.1400     4.2190 hc         1 PZN       0.031033
     70 H24         -3.3780     3.1710     0.0890 h4         1 PZN       0.163000
     71 H231        -4.9320     3.8650    -1.4620 hc         1 PZN       0.034811
     72 H232        -6.5880     4.3100    -1.0710 hc         1 PZN       0.034811
     73 H233        -5.3530     4.3700     0.1780 hc         1 PZN       0.034811
     74 H211        -6.8290     0.6110    -1.3680 hc         1 PZN       0.034811
     75 H212        -7.4480     2.1510    -1.9670 hc         1 PZN       0.034811
     76 H213        -5.8080     1.6390    -2.3760 hc         1 PZN       0.034811
     77 H221        -6.8090     2.8820     1.6420 hc         1 PZN       0.034811
     78 H222        -8.0330     2.8710     0.3710 hc         1 PZN       0.034811
     79 H223        -7.4240     1.3480     1.0220 hc         1 PZN       0.034811
     80 HN5         -3.4250    -2.2090     1.6450 hn         1 PZN       0.467800
     81 H251        -5.7290    -3.0780     1.8170 h1         1 PZN       0.080700
     82 H252        -6.2150    -1.7800     0.7390 h1         1 PZN       0.080700
     83 H281        -4.8730    -0.9950    -1.8830 hc         1 PZN       0.072367
     84 H282        -3.2170    -1.4700    -1.5370 hc         1 PZN       0.072367
     85 H283        -3.9300    -1.8660    -3.1010 hc         1 PZN       0.072367
@<TRIPOS>BOND
     1     1     2 1   
     2     1    42 1   
     3     1    43 1   
     4     1    44 1   
     5     2     3 1   
     6     2    45 1   
     7     2    46 1   
     8     3     4 1   
     9     3    47 1   
    10     3    48 1   
    11     4     5 1   
    12     4    49 1   
    13     4    50 1   
    14     5     6 1   
    15     5    51 1   
    16     5    52 1   
    17     6     7 1   
    18     6    53 1   
    19     6    54 1   
    20     7     8 1   
    21     7     9 1   
    22     8    55 1   
    23     8    56 1   
    24     8    57 1   
    25     9    10 1   
    26     9    58 1   
    27     9    59 1   
    28    10    11 2   
    29    10    12 1   
    30    12    13 1   
    31    12    14 1   
    32    12    60 1   
    33    13    18 1   
    34    13    61 1   
    35    14    15 1   
    36    14    62 1   
    37    14    63 1   
    38    15    16 1   
    39    15    17 1   
    40    18    19 1   
    41    18    20 2   
    42    19    21 1   
    43    19    23 1   
    44    19    64 1   
    45    21    22 1   
    46    21    65 1   
    47    21    66 1   
    48    22    67 1   
    49    22    68 1   
    50    22    69 1   
    51    23    27 1   
    52    23    28 1   
    53    24    25 2   
    54    24    28 1   
    55    24    34 1   
    56    25    26 1   
    57    26    27 2   
    58    26    30 1   
    59    27    70 1   
    60    28    29 2   
    61    30    31 1   
    62    30    32 1   
    63    30    33 1   
    64    31    71 1   
    65    31    72 1   
    66    31    73 1   
    67    32    74 1   
    68    32    75 1   
    69    32    76 1   
    70    33    77 1   
    71    33    78 1   
    72    33    79 1   
    73    34    35 1   
    74    34    80 1   
    75    35    36 1   
    76    35    81 1   
    77    35    82 1   
    78    36    37 1   
    79    36    40 2   
    80    37    38 2   
    81    37    41 1   
    82    38    39 1   
    83    39    40 1   
    84    41    83 1   
    85    41    84 1   
    86    41    85 1   
@<TRIPOS>SUBSTRUCTURE
     1 PZN         1 TEMP              0 ****  ****    0 ROOT
