@<TRIPOS>MOLECULE
PZN
   85    86     1     0     0
SMALL
No Charge or Current Charge


@<TRIPOS>ATOM
      1 C1          12.3820    -4.2880     0.9300 c3         1 PZN      -0.087100
      2 C2          11.0400    -4.0650     0.2070 c3         1 PZN      -0.075400
      3 C3          10.3030    -2.7930     0.6780 c3         1 PZN      -0.075400
      4 C4           8.9570    -2.5700    -0.0470 c3         1 PZN      -0.075400
      5 C5           8.2190    -1.2970     0.4240 c3         1 PZN      -0.077400
      6 C6           6.8740    -1.0790    -0.3070 c3         1 PZN       0.170800
      7 N1           6.0490     0.0400     0.2160 n3         1 PZN      -0.700600
      8 C7           6.7050     1.3690     0.0970 c3         1 PZN       0.147100
      9 C8           4.6620     0.0340    -0.3650 c3         1 PZN       0.070800
     10 C9           3.5770     0.9740     0.2500 c          1 PZN       0.618100
     11 O1           3.6240     1.3710     1.4150 o          1 PZN      -0.535100
     12 C10          2.3750     1.3270    -0.6830 c3         1 PZN       0.041700
     13 N2           1.1960     1.7210     0.1180 ns         1 PZN      -0.450900
     14 C11          2.7240     2.3870    -1.7690 c3         1 PZN      -0.235400
     15 C12          3.0230     3.7520    -1.1360 c          1 PZN       0.710000
     16 O2           2.0970     4.5270    -0.9620 o          1 PZN      -0.733000
     17 O3           4.1730     3.9810    -0.8030 o          1 PZN      -0.733000
     18 C13         -0.1200     1.6050    -0.2870 c          1 PZN       0.606100
     19 C14         -1.2060     2.1690     0.6860 c3         1 PZN       0.017700
     20 O4          -0.4080     1.1010    -1.3680 o          1 PZN      -0.634100
     21 C15         -0.7370     2.4310     2.1510 c3         1 PZN      -0.089400
     22 C16         -1.8130     3.0730     3.0540 c3         1 PZN      -0.088100
     23 N3          -2.5130     1.4390     0.6240 n          1 PZN      -0.234000
     24 C18         -3.9230    -0.5340     0.6230 cc         1 PZN       0.594200
     25 N4          -5.0550     0.1200     0.3740 nd         1 PZN      -0.650300
     26 C19         -4.9560     1.5160     0.2430 cd         1 PZN       0.063400
     27 C24         -3.7040     2.1190     0.3680 cc         1 PZN      -0.114400
     28 C17         -2.5350     0.0450     0.7840 c          1 PZN       0.424700
     29 O5          -1.5260    -0.6150     1.0460 o          1 PZN      -0.552000
     30 C20         -6.2620     2.2810    -0.0320 c3         1 PZN       0.028200
     31 C23         -6.0260     3.8110    -0.1790 c3         1 PZN      -0.081433
     32 C21         -6.9030     1.7670    -1.3500 c3         1 PZN      -0.081433
     33 C22         -7.2530     2.0590     1.1430 c3         1 PZN      -0.081433
     34 N5          -4.0420    -1.9090     0.7550 nu         1 PZN      -0.897400
     35 C25         -5.2540    -2.7530     0.5790 c3         1 PZN       0.197500
     36 C26         -5.1380    -3.6730    -0.6190 cc         1 PZN       0.201300
     37 C27         -5.5290    -3.3320    -1.9280 cc         1 PZN       0.264300
     38 N7          -5.3170    -4.3160    -2.7690 nd         1 PZN      -0.352300
     39 O6          -4.7570    -5.3280    -1.9230 os         1 PZN       0.091600
     40 N6          -4.6530    -4.8930    -0.5610 nd         1 PZN      -0.347300
     41 C28         -6.1180    -2.0080    -2.3350 c3         1 PZN      -0.143400
     42 H11         13.0610    -3.4450     0.7560 hc         1 PZN       0.027700
     43 H12         12.2280    -4.3930     2.0110 hc         1 PZN       0.027700
     44 H13         12.8670    -5.2010     0.5630 hc         1 PZN       0.027700
     45 H21         11.2230    -4.0010    -0.8730 hc         1 PZN       0.034700
     46 H22         10.3970    -4.9400     0.3700 hc         1 PZN       0.034700
     47 H31         10.1230    -2.8600     1.7580 hc         1 PZN       0.036700
     48 H32         10.9490    -1.9210     0.5150 hc         1 PZN       0.036700
     49 H41          9.1370    -2.5020    -1.1280 hc         1 PZN       0.034200
     50 H42          8.3110    -3.4420     0.1160 hc         1 PZN       0.034200
     51 H51          8.0320    -1.3670     1.5030 hc         1 PZN       0.046200
     52 H52          8.8730    -0.4330     0.2630 hc         1 PZN       0.046200
     53 H61          7.0750    -0.9250    -1.3760 h1         1 PZN       0.020200
     54 H62          6.3010    -2.0120    -0.2220 h1         1 PZN       0.020200
     55 H71          6.0690     2.1620     0.5100 h1         1 PZN       0.038033
     56 H72          7.6520     1.3970     0.6500 h1         1 PZN       0.038033
     57 H73          6.9110     1.6110    -0.9550 h1         1 PZN       0.038033
     58 H81          4.7190     0.2610    -1.4370 h1         1 PZN       0.054200
     59 H82          4.2380    -0.9760    -0.2940 h1         1 PZN       0.054200
     60 H10          2.1240     0.3920    -1.2020 h1         1 PZN       0.057700
     61 HN2          1.3600     2.1420     1.0260 hn         1 PZN       0.342500
     62 H111         3.6090     2.0130    -2.2960 hc         1 PZN       0.041200
     63 H112         1.8400     2.4600    -2.4140 hc         1 PZN       0.041200
     64 H14         -1.3850     3.1690     0.2710 h1         1 PZN       0.076700
     65 H151        -0.4110     1.4860     2.6050 hc         1 PZN       0.073200
     66 H152         0.1310     3.1020     2.1450 hc         1 PZN       0.073200
     67 H161        -2.1770     4.0120     2.6190 hc         1 PZN       0.031033
     68 H162        -2.6670     2.3990     3.1930 hc         1 PZN       0.031033
     69 H163        -1.3950     3.2950     4.0440 hc         1 PZN       0.031033
     70 H24         -3.5350     3.1860     0.2810 h4         1 PZN       0.213000
     71 H231        -5.3460     4.0280    -1.0120 hc         1 PZN       0.034811
     72 H232        -6.9690     4.3350    -0.3770 hc         1 PZN       0.034811
     73 H233        -5.5990     4.2350     0.7390 hc         1 PZN       0.034811
     74 H211        -7.1850     0.7110    -1.2710 hc         1 PZN       0.034811
     75 H212        -7.8110     2.3340    -1.5930 hc         1 PZN       0.034811
     76 H213        -6.2040     1.8700    -2.1880 hc         1 PZN       0.034811
     77 H221        -6.8120     2.3920     2.0900 hc         1 PZN       0.034811
     78 H222        -8.1820     2.6200     0.9850 hc         1 PZN       0.034811
     79 H223        -7.5170     1.0000     1.2470 hc         1 PZN       0.034811
     80 HN5         -3.1510    -2.3710     0.9540 hn         1 PZN       0.523000
     81 H251        -5.4030    -3.3730     1.4740 h1         1 PZN       0.080700
     82 H252        -6.1630    -2.1450     0.4750 h1         1 PZN       0.080700
     83 H281        -7.0260    -1.7900    -1.7620 hc         1 PZN       0.072367
     84 H282        -5.4010    -1.1970    -2.1670 hc         1 PZN       0.072367
     85 H283        -6.3850    -2.0030    -3.3990 hc         1 PZN       0.072367
@<TRIPOS>BOND
     1     1     2 1   
     2     1    42 1   
     3     1    43 1   
     4     1    44 1   
     5     2     3 1   
     6     2    45 1   
     7     2    46 1   
     8     3     4 1   
     9     3    47 1   
    10     3    48 1   
    11     4     5 1   
    12     4    49 1   
    13     4    50 1   
    14     5     6 1   
    15     5    51 1   
    16     5    52 1   
    17     6     7 1   
    18     6    53 1   
    19     6    54 1   
    20     7     8 1   
    21     7     9 1   
    22     8    55 1   
    23     8    56 1   
    24     8    57 1   
    25     9    10 1   
    26     9    58 1   
    27     9    59 1   
    28    10    11 2   
    29    10    12 1   
    30    12    13 1   
    31    12    14 1   
    32    12    60 1   
    33    13    18 1   
    34    13    61 1   
    35    14    15 1   
    36    14    62 1   
    37    14    63 1   
    38    15    16 1   
    39    15    17 1   
    40    18    19 1   
    41    18    20 2   
    42    19    21 1   
    43    19    23 1   
    44    19    64 1   
    45    21    22 1   
    46    21    65 1   
    47    21    66 1   
    48    22    67 1   
    49    22    68 1   
    50    22    69 1   
    51    23    27 1   
    52    23    28 1   
    53    24    25 2   
    54    24    28 1   
    55    24    34 1   
    56    25    26 1   
    57    26    27 2   
    58    26    30 1   
    59    27    70 1   
    60    28    29 2   
    61    30    31 1   
    62    30    32 1   
    63    30    33 1   
    64    31    71 1   
    65    31    72 1   
    66    31    73 1   
    67    32    74 1   
    68    32    75 1   
    69    32    76 1   
    70    33    77 1   
    71    33    78 1   
    72    33    79 1   
    73    34    35 1   
    74    34    80 1   
    75    35    36 1   
    76    35    81 1   
    77    35    82 1   
    78    36    37 1   
    79    36    40 2   
    80    37    38 2   
    81    37    41 1   
    82    38    39 1   
    83    39    40 1   
    84    41    83 1   
    85    41    84 1   
    86    41    85 1   
@<TRIPOS>SUBSTRUCTURE
     1 PZN         1 TEMP              0 ****  ****    0 ROOT
