@<TRIPOS>MOLECULE
PZO
    9     9     1     0     0
SMALL
abcg2


@<TRIPOS>ATOM
      1 C5          -0.0160    -0.0400     1.1830 cc         1 PZO       0.236900
      2 C4           1.1740     0.0000     0.4370 cc         1 PZO      -0.230000
      3 C3           0.7510     0.0180    -0.8730 cd         1 PZO      -0.176000
      4 N2          -0.5910    -0.0110    -0.8350 na         1 PZO      -0.005200
      5 N1          -1.0790    -0.0460     0.3990 nd         1 PZO      -0.525800
      6 HC5         -0.1320    -0.0640     2.2560 h4         1 PZO       0.036100
      7 HC4          2.1890     0.0150     0.7990 ha         1 PZO       0.145000
      8 HC3          1.2940     0.0490    -1.8030 h4         1 PZO       0.152000
      9 HN2         -1.2190    -0.0090    -1.6220 hn         1 PZO       0.368000
@<TRIPOS>BOND
     1     1     2 1   
     2     1     5 2   
     3     1     6 1   
     4     2     3 2   
     5     2     7 1   
     6     3     4 1   
     7     3     8 1   
     8     4     5 1   
     9     4     9 1   
@<TRIPOS>SUBSTRUCTURE
     1 PZO         1 TEMP              0 ****  ****    0 ROOT
