@<TRIPOS>MOLECULE
PZO
    9     9     1     0     0
SMALL
No Charge or Current Charge


@<TRIPOS>ATOM
      1 C5          -0.0140    -0.0400     1.1840 cc         1 PZO       0.236900
      2 C4           1.1570     0.0010     0.4180 cc         1 PZO      -0.230000
      3 C3           0.7810     0.0190    -0.8900 cd         1 PZO      -0.176000
      4 N2          -0.6210    -0.0120    -0.8480 na         1 PZO      -0.005200
      5 N1          -1.1150    -0.0490     0.4590 nd         1 PZO      -0.525800
      6 HC5         -0.0940    -0.0630     2.2630 h4         1 PZO       0.036100
      7 HC4          2.1670     0.0140     0.8170 ha         1 PZO       0.145000
      8 HC3          1.3570     0.0500    -1.8090 h4         1 PZO       0.152000
      9 HN2         -1.2470    -0.0080    -1.6540 hn         1 PZO       0.368000
@<TRIPOS>BOND
     1     1     2 1   
     2     1     5 2   
     3     1     6 1   
     4     2     3 2   
     5     2     7 1   
     6     3     4 1   
     7     3     8 1   
     8     4     5 1   
     9     4     9 1   
@<TRIPOS>SUBSTRUCTURE
     1 PZO         1 TEMP              0 ****  ****    0 ROOT
