@<TRIPOS>MOLECULE
PZQ
   47    50     1     0     0
SMALL
No Charge or Current Charge


@<TRIPOS>ATOM
      1 C1           0.5340     1.1830     1.6560 c          1 PZQ       0.621100
      2 C2           1.9590    -1.1710     4.5080 c6         1 PZQ      -0.074900
      3 C3           1.9960    -0.1290     3.3620 c6         1 PZQ      -0.066900
      4 C4           0.5640     0.1980     2.8540 c6         1 PZQ      -0.136700
      5 C5          -0.4010     0.6170     3.9970 c6         1 PZQ      -0.066900
      6 C6          -0.4080    -0.4310     5.1380 c6         1 PZQ      -0.074900
      7 C7           2.2300    -1.5530    -3.8840 ca         1 PZQ      -0.102000
      8 C8           0.8550    -1.6970    -4.1260 ca         1 PZQ      -0.113000
      9 C9          -1.5740    -1.0640    -3.7800 c6         1 PZQ      -0.062100
     10 C10         -2.4930     0.0170    -3.1630 c6         1 PZQ       0.089000
     11 C11          0.3790     0.1780    -2.6260 ca         1 PZQ      -0.107300
     12 C12         -0.0740    -0.8380    -3.5100 ca         1 PZQ      -0.067300
     13 C13          1.0250    -0.7130     5.6560 c6         1 PZQ      -0.075400
     14 C14         -2.3980    -0.1100    -0.6380 c          1 PZQ       0.552000
     15 C15         -1.5340     0.0920     0.6330 c6         1 PZQ       0.019000
     16 C16         -0.2510     1.8130    -0.6490 c6         1 PZQ       0.086000
     17 C17         -0.6560     1.1320    -1.9840 c6         1 PZQ       0.144000
     18 C18          1.7680     0.3160    -2.3960 ca         1 PZQ      -0.089000
     19 C19          2.6840    -0.5470    -3.0190 ca         1 PZQ      -0.109000
     20 N1          -0.2720     0.9000     0.5240 n          1 PZQ      -0.412800
     21 N2          -1.9430     0.4250    -1.8570 n          1 PZQ      -0.387800
     22 O1           1.2250     2.1950     1.6850 o          1 PZQ      -0.599100
     23 H21          1.6170    -2.1390     4.1170 hc         1 PZQ       0.040950
     24 H22          2.9740    -1.3330     4.8960 hc         1 PZQ       0.040950
     25 H31          2.6120    -0.5090     2.5350 hc         1 PZQ       0.050700
     26 H32          2.4840     0.7890     3.7190 hc         1 PZQ       0.050700
     27 H4           0.1530    -0.7470     2.4810 hc         1 PZQ       0.062700
     28 H51         -0.0940     1.5940     4.3980 hc         1 PZQ       0.050700
     29 H52         -1.4210     0.7480     3.6110 hc         1 PZQ       0.050700
     30 H61         -0.8610    -1.3660     4.7790 hc         1 PZQ       0.040950
     31 H62         -1.0400    -0.0770     5.9640 hc         1 PZQ       0.040950
     32 H7           2.9410    -2.2210    -4.3650 ha         1 PZQ       0.114000
     33 H8           0.5090    -2.4840    -4.7940 ha         1 PZQ       0.111000
     34 H91         -1.8550    -2.0390    -3.3590 hc         1 PZQ       0.061700
     35 H92         -1.7620    -1.1320    -4.8590 hc         1 PZQ       0.061700
     36 H101        -3.5210    -0.3620    -3.0680 h1         1 PZQ       0.066700
     37 H102        -2.5270     0.8910    -3.8290 h1         1 PZQ       0.066700
     38 H131         0.9920    -1.4830     6.4390 hc         1 PZQ       0.041700
     39 H132         1.4330     0.1930     6.1270 hc         1 PZQ       0.041700
     40 H151        -2.1930     0.5500     1.3830 h1         1 PZQ       0.075700
     41 H152        -1.2920    -0.9250     0.9640 h1         1 PZQ       0.075700
     42 H161        -0.9650     2.6250    -0.4530 h1         1 PZQ       0.071200
     43 H162         0.7290     2.2950    -0.7550 h1         1 PZQ       0.071200
     44 H17         -0.7990     1.9510    -2.7050 h1         1 PZQ       0.069700
     45 H18          2.1570     1.0900    -1.7410 ha         1 PZQ       0.122000
     46 H19          3.7500    -0.4330    -2.8330 ha         1 PZQ       0.117000
     47 O2          -3.4440    -0.7460    -0.5780 o          1 PZQ      -0.560000
@<TRIPOS>BOND
     1     1     4 1   
     2     1    20 1   
     3     1    22 2   
     4     2     3 1   
     5     2    13 1   
     6     2    23 1   
     7     2    24 1   
     8     3     4 1   
     9     3    25 1   
    10     3    26 1   
    11     4     5 1   
    12     4    27 1   
    13     5     6 1   
    14     5    28 1   
    15     5    29 1   
    16     6    13 1   
    17     6    30 1   
    18     6    31 1   
    19     7     8 ar  
    20     7    19 ar  
    21     7    32 1   
    22     8    12 ar  
    23     8    33 1   
    24     9    10 1   
    25     9    12 1   
    26     9    34 1   
    27     9    35 1   
    28    10    21 1   
    29    10    36 1   
    30    10    37 1   
    31    11    12 ar  
    32    11    17 1   
    33    11    18 ar  
    34    13    38 1   
    35    13    39 1   
    36    14    15 1   
    37    14    21 1   
    38    14    47 2   
    39    15    20 1   
    40    15    40 1   
    41    15    41 1   
    42    16    17 1   
    43    16    20 1   
    44    16    42 1   
    45    16    43 1   
    46    17    21 1   
    47    17    44 1   
    48    18    19 ar  
    49    18    45 1   
    50    19    46 1   
@<TRIPOS>SUBSTRUCTURE
     1 PZQ         1 TEMP              0 ****  ****    0 ROOT
