@<TRIPOS>MOLECULE
PZQ
   47    50     1     0     0
SMALL
abcg2


@<TRIPOS>ATOM
      1 C1           0.6000     0.9220     1.2980 c          1 PZQ       0.621100
      2 C2           1.7600    -1.5030     4.0760 c6         1 PZQ      -0.074900
      3 C3           1.8750    -0.5390     2.9000 c6         1 PZQ      -0.066900
      4 C4           0.4960    -0.0460     2.4630 c6         1 PZQ      -0.136700
      5 C5          -0.2310     0.6170     3.6450 c6         1 PZQ      -0.066900
      6 C6          -0.3380    -0.3410     4.8270 c6         1 PZQ      -0.074900
      7 C7           2.4270    -1.3090    -3.2920 ca         1 PZQ      -0.102000
      8 C8           1.1030    -1.6880    -3.4390 ca         1 PZQ      -0.113000
      9 C9          -1.3610    -1.3350    -3.2010 c6         1 PZQ      -0.062100
     10 C10         -2.3510    -0.2040    -2.9750 c6         1 PZQ       0.089000
     11 C11          0.3650     0.3370    -2.3620 ca         1 PZQ      -0.107300
     12 C12          0.0620    -0.8770    -2.9890 ca         1 PZQ      -0.067300
     13 C13          1.0310    -0.8600     5.2510 c6         1 PZQ      -0.075400
     14 C14         -2.4500     0.0210    -0.5690 c          1 PZQ       0.552000
     15 C15         -1.8000     0.5190     0.7110 c6         1 PZQ       0.019000
     16 C16         -0.4820     2.0110    -0.6030 c6         1 PZQ       0.086000
     17 C17         -0.7560     1.2500    -1.8870 c6         1 PZQ       0.144000
     18 C18          1.6990     0.7210    -2.2400 ca         1 PZQ      -0.089000
     19 C19          2.7250    -0.0910    -2.6950 ca         1 PZQ      -0.109000
     20 N1          -0.4950     1.0950     0.5120 n          1 PZQ      -0.412800
     21 N2          -1.9820     0.4780    -1.7470 n          1 PZQ      -0.387800
     22 O1           1.6290     1.5470     1.0890 o          1 PZQ      -0.599100
     23 H21          1.2220    -2.4040     3.7630 hc         1 PZQ       0.040950
     24 H22          2.7560    -1.8300     4.3830 hc         1 PZQ       0.040950
     25 H31          2.3820    -1.0260     2.0640 hc         1 PZQ       0.050700
     26 H32          2.4940     0.3140     3.1910 hc         1 PZQ       0.050700
     27 H4          -0.0810    -0.9260     2.1590 hc         1 PZQ       0.062700
     28 H51          0.3250     1.5120     3.9430 hc         1 PZQ       0.050700
     29 H52         -1.2280     0.9550     3.3520 hc         1 PZQ       0.050700
     30 H61         -0.9780    -1.1840     4.5470 hc         1 PZQ       0.040950
     31 H62         -0.8330     0.1610     5.6620 hc         1 PZQ       0.040950
     32 H7           3.2200    -1.9540    -3.6480 ha         1 PZQ       0.114000
     33 H8           0.8630    -2.6290    -3.9210 ha         1 PZQ       0.111000
     34 H91         -1.5880    -2.1580    -2.5170 hc         1 PZQ       0.061700
     35 H92         -1.4770    -1.7340    -4.2110 hc         1 PZQ       0.061700
     36 H101        -3.3730    -0.5670    -2.9180 h1         1 PZQ       0.066700
     37 H102        -2.3040     0.5220    -3.7890 h1         1 PZQ       0.066700
     38 H131         0.9270    -1.5750     6.0710 hc         1 PZQ       0.041700
     39 H132         1.6300    -0.0280     5.6360 hc         1 PZQ       0.041700
     40 H151        -2.4830     1.2510     1.1600 h1         1 PZQ       0.075700
     41 H152        -1.7710    -0.3350     1.3820 h1         1 PZQ       0.075700
     42 H161        -1.2680     2.7600    -0.4680 h1         1 PZQ       0.071200
     43 H162         0.4610     2.5450    -0.6470 h1         1 PZQ       0.071200
     44 H17         -0.9400     2.0000    -2.6650 h1         1 PZQ       0.069700
     45 H18          1.9550     1.6680    -1.7840 ha         1 PZQ       0.122000
     46 H19          3.7530     0.2260    -2.5810 ha         1 PZQ       0.117000
     47 O2          -3.3980    -0.7460    -0.4830 o          1 PZQ      -0.560000
@<TRIPOS>BOND
     1     1     4 1   
     2     1    20 1   
     3     1    22 2   
     4     2     3 1   
     5     2    13 1   
     6     2    23 1   
     7     2    24 1   
     8     3     4 1   
     9     3    25 1   
    10     3    26 1   
    11     4     5 1   
    12     4    27 1   
    13     5     6 1   
    14     5    28 1   
    15     5    29 1   
    16     6    13 1   
    17     6    30 1   
    18     6    31 1   
    19     7     8 ar  
    20     7    19 ar  
    21     7    32 1   
    22     8    12 ar  
    23     8    33 1   
    24     9    10 1   
    25     9    12 1   
    26     9    34 1   
    27     9    35 1   
    28    10    21 1   
    29    10    36 1   
    30    10    37 1   
    31    11    12 ar  
    32    11    17 1   
    33    11    18 ar  
    34    13    38 1   
    35    13    39 1   
    36    14    15 1   
    37    14    21 1   
    38    14    47 2   
    39    15    20 1   
    40    15    40 1   
    41    15    41 1   
    42    16    17 1   
    43    16    20 1   
    44    16    42 1   
    45    16    43 1   
    46    17    21 1   
    47    17    44 1   
    48    18    19 ar  
    49    18    45 1   
    50    19    46 1   
@<TRIPOS>SUBSTRUCTURE
     1 PZQ         1 TEMP              0 ****  ****    0 ROOT
