@<TRIPOS>MOLECULE
PZR
   14    15     1     0     0
SMALL
No Charge or Current Charge


@<TRIPOS>ATOM
      1 C1           1.5730    -1.1160     0.0460 cc         1 PZR       0.374800
      2 N1           1.5580     1.0450     0.0260 na         1 PZR      -0.059400
      3 C2           0.2040    -0.6840     0.0390 ca         1 PZR      -0.297900
      4 N2           2.4170    -0.0670     0.0380 nd         1 PZR      -0.514100
      5 C3          -1.0020    -1.3870     0.0420 ca         1 PZR       0.420900
      6 N3          -2.1850    -0.7160     0.0330 nb         1 PZR      -0.695000
      7 C4          -2.1520     0.6500     0.0210 ca         1 PZR       0.360900
      8 C5          -0.9530     1.3990     0.0170 ca         1 PZR      -0.181000
      9 C6           0.2350     0.6670     0.0270 ca         1 PZR      -0.014200
     10 H1           2.0050    -2.1080     0.0560 h4         1 PZR       0.054800
     11 HN1          1.9140     2.0010     0.0180 hn         1 PZR       0.379000
     12 H3          -1.0360    -2.4770     0.0520 h4         1 PZR       0.024100
     13 H4          -3.1170     1.1560     0.0140 h4         1 PZR       0.019100
     14 H5          -0.9660     2.4850     0.0070 ha         1 PZR       0.129000
@<TRIPOS>BOND
     1     1     3 1   
     2     1     4 2   
     3     1    10 1   
     4     2     4 1   
     5     2     9 1   
     6     2    11 1   
     7     3     5 ar  
     8     3     9 ar  
     9     5     6 ar  
    10     5    12 1   
    11     6     7 ar  
    12     7     8 ar  
    13     7    13 1   
    14     8     9 ar  
    15     8    14 1   
@<TRIPOS>SUBSTRUCTURE
     1 PZR         1 TEMP              0 ****  ****    0 ROOT
