@<TRIPOS>MOLECULE
PZR
   14    15     1     0     0
SMALL
bcc


@<TRIPOS>ATOM
      1 C1           1.5920    -1.0970     0.0460 cc         1 PZR       0.374800
      2 N1           1.5350     1.0290     0.0270 na         1 PZR      -0.009100
      3 C2           0.2190    -0.7280     0.0400 ca         1 PZR      -0.363200
      4 N2           2.3500    -0.0340     0.0380 nd         1 PZR      -0.514100
      5 C3          -1.0200    -1.3760     0.0420 ca         1 PZR       0.486200
      6 N3          -2.1500    -0.7050     0.0330 nb         1 PZR      -0.695000
      7 C4          -2.1080     0.6440     0.0210 ca         1 PZR       0.426200
      8 C5          -0.9600     1.4000     0.0170 ca         1 PZR      -0.264300
      9 C6           0.2360     0.6760     0.0270 ca         1 PZR      -0.014200
     10 H1           2.0250    -2.0850     0.0560 h4         1 PZR       0.054800
     11 HN1          1.9250     1.9580     0.0170 hn         1 PZR       0.328700
     12 H3          -1.0820    -2.4590     0.0520 h4         1 PZR       0.024100
     13 H4          -3.0710     1.1420     0.0140 h4         1 PZR       0.019100
     14 H5          -0.9950     2.4810     0.0080 ha         1 PZR       0.147000
@<TRIPOS>BOND
     1     1     3 1   
     2     1     4 2   
     3     1    10 1   
     4     2     4 1   
     5     2     9 1   
     6     2    11 1   
     7     3     5 ar  
     8     3     9 ar  
     9     5     6 ar  
    10     5    12 1   
    11     6     7 ar  
    12     7     8 ar  
    13     7    13 1   
    14     8     9 ar  
    15     8    14 1   
@<TRIPOS>SUBSTRUCTURE
     1 PZR         1 TEMP              0 ****  ****    0 ROOT
