@<TRIPOS>MOLECULE
PZS
   54    56     1     0     0
SMALL
No Charge or Current Charge


@<TRIPOS>ATOM
      1 C10         -4.7780     1.3170     0.0260 c3         1 PZS      -0.073400
      2 C14         -6.2080     1.8760    -0.1370 c3         1 PZS      -0.076400
      3 C15         -6.4870     3.0880     0.7720 c3         1 PZS      -0.089100
      4 C9          -4.4920     0.1050    -0.8850 c3         1 PZS      -0.055200
      5 C8          -3.0790    -0.4080    -0.7100 c2         1 PZS      -0.145200
      6 C7          -2.7090    -1.4380     0.0850 ce         1 PZS      -0.207000
      7 C           -1.3260    -1.8920     0.2590 ce         1 PZS       0.182100
      8 O           -0.3400    -1.1930    -0.4010 os         1 PZS      -0.318100
      9 C3           0.9220    -1.7920     0.0480 c5         1 PZS      -0.063000
     10 C2           0.5780    -3.0220     0.9000 c          1 PZS       0.599300
     11 O1           1.2870    -3.9090     1.3610 o          1 PZS      -0.466100
     12 C1          -0.8830    -2.9210     1.0100 cf         1 PZS      -0.300400
     13 C11         -1.7140    -3.9130     1.8110 c3         1 PZS      -0.006900
     14 C6           1.7940    -2.2500    -1.1140 c          1 PZS       0.608000
     15 O2           1.6680    -3.2170    -1.8480 o          1 PZS      -0.496000
     16 N            2.8110    -1.3390    -1.2140 ns         1 PZS      -0.509900
     17 C5           2.5950    -0.1340    -0.4040 c5         1 PZS       0.212400
     18 C4           1.7310    -0.6930     0.7910 c5         1 PZS       0.198300
     19 O3           2.5910    -1.2280     1.8030 oh         1 PZS      -0.683000
     20 O11          3.8620     0.3410     0.1350 os         1 PZS      -0.458000
     21 C31          4.8340     0.8730    -0.7890 c3         1 PZS       0.145900
     22 C12          1.8060     0.9330    -1.2880 c          1 PZS       0.551700
     23 O4           1.7110     0.9100    -2.5120 o          1 PZS      -0.495100
     24 C13          1.1010     1.9990    -0.4700 ca         1 PZS      -0.173600
     25 C28         -0.1780     2.4320    -0.8880 ca         1 PZS      -0.062500
     26 C27         -0.8790     3.4070    -0.1590 ca         1 PZS      -0.124500
     27 C26         -0.3070     3.9740     0.9900 ca         1 PZS      -0.078000
     28 C25          0.9700     3.5670     1.4060 ca         1 PZS      -0.124500
     29 C24          1.6750     2.5900     0.6820 ca         1 PZS      -0.062500
     30 H6          -4.0530     2.1100    -0.1960 hc         1 PZS       0.040700
     31 H16         -4.6210     1.0240     1.0710 hc         1 PZS       0.040700
     32 H12         -6.3680     2.1700    -1.1810 hc         1 PZS       0.039700
     33 H11         -6.9360     1.0860     0.0890 hc         1 PZS       0.039700
     34 H13         -6.3700     2.8170     1.8290 hc         1 PZS       0.032367
     35 H15         -5.7970     3.9100     0.5470 hc         1 PZS       0.032367
     36 H14         -7.5120     3.4500     0.6230 hc         1 PZS       0.032367
     37 H4          -5.2150    -0.6920    -0.6680 hc         1 PZS       0.054200
     38 H5          -4.6530     0.3940    -1.9310 hc         1 PZS       0.054200
     39 H3          -2.3350     0.1430    -1.2870 ha         1 PZS       0.188000
     40 H2          -3.4640    -1.9760     0.6580 ha         1 PZS       0.194000
     41 H9          -2.0440    -3.4730     2.7590 hc         1 PZS       0.044367
     42 H7          -2.6090    -4.2220     1.2580 hc         1 PZS       0.044367
     43 H8          -1.1500    -4.8230     2.0470 hc         1 PZS       0.044367
     44 H1           3.4740    -1.4320    -1.9730 hn         1 PZS       0.338500
     45 H            1.0650     0.0610     1.2320 h1         1 PZS       0.072700
     46 H10          3.4690    -0.8150     1.6060 ho         1 PZS       0.531000
     47 H38          4.4390     1.7500    -1.3160 h1         1 PZS       0.044367
     48 H39          5.7380     1.1820    -0.2500 h1         1 PZS       0.044367
     49 H37          5.1260     0.1200    -1.5320 h1         1 PZS       0.044367
     50 H32         -0.6360     2.0030    -1.7770 ha         1 PZS       0.128500
     51 H31         -1.8660     3.7250    -0.4880 ha         1 PZS       0.120000
     52 H30         -0.8500     4.7300     1.5530 ha         1 PZS       0.118000
     53 H29          1.4190     4.0130     2.2910 ha         1 PZS       0.120000
     54 H28          2.6670     2.3100     1.0250 ha         1 PZS       0.128500
@<TRIPOS>BOND
     1     1     2 1   
     2     1     4 1   
     3     1    30 1   
     4     1    31 1   
     5     2     3 1   
     6     2    32 1   
     7     2    33 1   
     8     3    34 1   
     9     3    35 1   
    10     3    36 1   
    11     4     5 1   
    12     4    37 1   
    13     4    38 1   
    14     5     6 2   
    15     5    39 1   
    16     6     7 1   
    17     6    40 1   
    18     7     8 1   
    19     7    12 2   
    20     8     9 1   
    21     9    10 1   
    22     9    14 1   
    23     9    18 1   
    24    10    11 2   
    25    10    12 1   
    26    12    13 1   
    27    13    41 1   
    28    13    42 1   
    29    13    43 1   
    30    14    15 2   
    31    14    16 1   
    32    16    17 1   
    33    16    44 1   
    34    17    18 1   
    35    17    20 1   
    36    17    22 1   
    37    18    19 1   
    38    18    45 1   
    39    19    46 1   
    40    20    21 1   
    41    21    47 1   
    42    21    48 1   
    43    21    49 1   
    44    22    23 2   
    45    22    24 1   
    46    24    25 ar  
    47    24    29 ar  
    48    25    26 ar  
    49    25    50 1   
    50    26    27 ar  
    51    26    51 1   
    52    27    28 ar  
    53    27    52 1   
    54    28    29 ar  
    55    28    53 1   
    56    29    54 1   
@<TRIPOS>SUBSTRUCTURE
     1 PZS         1 TEMP              0 ****  ****    0 ROOT
