@<TRIPOS>MOLECULE
PZS
   54    56     1     0     0
SMALL
bcc


@<TRIPOS>ATOM
      1 C10         -4.3030     1.4300    -0.2730 c3         1 PZS      -0.073400
      2 C14         -5.6700     2.0780    -0.4440 c3         1 PZS      -0.076400
      3 C15         -5.6420     3.5730    -0.1570 c3         1 PZS      -0.089100
      4 C9          -4.3080    -0.0690    -0.5800 c3         1 PZS      -0.055200
      5 C8          -2.9390    -0.6430    -0.4830 c2         1 PZS      -0.095200
      6 C7          -2.5940    -1.6750     0.2960 ce         1 PZS      -0.157000
      7 C           -1.2450    -2.1690     0.4040 ce         1 PZS       0.182100
      8 O           -0.3020    -1.4890    -0.2820 os         1 PZS      -0.294900
      9 C3           0.9670    -2.0320     0.0400 c5         1 PZS      -0.086200
     10 C2           0.6630    -3.2650     0.8780 c          1 PZS       0.599300
     11 O1           1.4750    -4.0880     1.2440 o          1 PZS      -0.466100
     12 C1          -0.7580    -3.2200     1.1130 cf         1 PZS      -0.300400
     13 C11         -1.4900    -4.2090     1.9470 c3         1 PZS      -0.006900
     14 C6           1.7050    -2.2580    -1.2810 c          1 PZS       0.750500
     15 O2           1.6110    -3.2380    -1.9820 o          1 PZS      -0.571500
     16 N            2.4180    -1.1400    -1.5150 ns         1 PZS      -0.576900
     17 C5           2.2500    -0.1020    -0.5270 c5         1 PZS       0.189200
     18 C4           1.7850    -0.9330     0.7100 c5         1 PZS       0.175100
     19 O3           2.8670    -1.5340     1.3360 oh         1 PZS      -0.560800
     20 O11          3.4330     0.5310    -0.1840 os         1 PZS      -0.411600
     21 C31          4.0510     1.3400    -1.1750 c3         1 PZS       0.122700
     22 C12          1.1760     0.9170    -0.9980 c          1 PZS       0.551700
     23 O4           0.7430     0.8220    -2.1220 o          1 PZS      -0.495100
     24 C13          0.6760     1.9630    -0.0690 ca         1 PZS      -0.173600
     25 C28         -0.5270     2.5920    -0.4060 ca         1 PZS      -0.080500
     26 C27         -1.0760     3.5540     0.4210 ca         1 PZS      -0.142500
     27 C26         -0.4220     3.9180     1.5920 ca         1 PZS      -0.096000
     28 C25          0.7800     3.3130     1.9290 ca         1 PZS      -0.142500
     29 C24          1.3250     2.3360     1.1100 ca         1 PZS      -0.080500
     30 H6          -3.5830     1.9280    -0.9300 hc         1 PZS       0.040700
     31 H16         -3.9450     1.5910     0.7490 hc         1 PZS       0.040700
     32 H12         -6.0260     1.9060    -1.4650 hc         1 PZS       0.039700
     33 H11         -6.3930     1.5900     0.2160 hc         1 PZS       0.039700
     34 H13         -5.3170     3.7700     0.8670 hc         1 PZS       0.032367
     35 H15         -4.9510     4.0890    -0.8260 hc         1 PZS       0.032367
     36 H14         -6.6260     4.0230    -0.2850 hc         1 PZS       0.032367
     37 H4          -4.9960    -0.5960     0.0870 hc         1 PZS       0.054200
     38 H5          -4.6760    -0.2150    -1.6010 hc         1 PZS       0.054200
     39 H3          -2.1830    -0.1530    -1.0890 ha         1 PZS       0.138000
     40 H2          -3.3390    -2.1770     0.9020 ha         1 PZS       0.144000
     41 H9          -2.5470    -3.9650     2.0360 hc         1 PZS       0.044367
     42 H7          -1.4170    -5.2110     1.5220 hc         1 PZS       0.044367
     43 H8          -1.0750    -4.2550     2.9550 hc         1 PZS       0.044367
     44 H1           2.8360    -0.9780    -2.4210 hn         1 PZS       0.338500
     45 H            1.1740    -0.3430     1.4010 h1         1 PZS       0.072700
     46 H10          3.5230    -0.8600     1.5490 ho         1 PZS       0.432000
     47 H38          3.4330     2.1950    -1.4620 h1         1 PZS       0.044367
     48 H39          4.9700     1.7150    -0.7340 h1         1 PZS       0.044367
     49 H37          4.3080     0.7700    -2.0710 h1         1 PZS       0.044367
     50 H32         -1.0390     2.3160    -1.3180 ha         1 PZS       0.146500
     51 H31         -2.0160     4.0200     0.1550 ha         1 PZS       0.138000
     52 H30         -0.8500     4.6730     2.2400 ha         1 PZS       0.136000
     53 H29          1.2970     3.6000     2.8360 ha         1 PZS       0.138000
     54 H28          2.2680     1.8910     1.3950 ha         1 PZS       0.146500
@<TRIPOS>BOND
     1     1     2 1   
     2     1     4 1   
     3     1    30 1   
     4     1    31 1   
     5     2     3 1   
     6     2    32 1   
     7     2    33 1   
     8     3    34 1   
     9     3    35 1   
    10     3    36 1   
    11     4     5 1   
    12     4    37 1   
    13     4    38 1   
    14     5     6 2   
    15     5    39 1   
    16     6     7 1   
    17     6    40 1   
    18     7     8 1   
    19     7    12 2   
    20     8     9 1   
    21     9    10 1   
    22     9    14 1   
    23     9    18 1   
    24    10    11 2   
    25    10    12 1   
    26    12    13 1   
    27    13    41 1   
    28    13    42 1   
    29    13    43 1   
    30    14    15 2   
    31    14    16 1   
    32    16    17 1   
    33    16    44 1   
    34    17    18 1   
    35    17    20 1   
    36    17    22 1   
    37    18    19 1   
    38    18    45 1   
    39    19    46 1   
    40    20    21 1   
    41    21    47 1   
    42    21    48 1   
    43    21    49 1   
    44    22    23 2   
    45    22    24 1   
    46    24    25 ar  
    47    24    29 ar  
    48    25    26 ar  
    49    25    50 1   
    50    26    27 ar  
    51    26    51 1   
    52    27    28 ar  
    53    27    52 1   
    54    28    29 ar  
    55    28    53 1   
    56    29    54 1   
@<TRIPOS>SUBSTRUCTURE
     1 PZS         1 TEMP              0 ****  ****    0 ROOT
