@<TRIPOS>MOLECULE
PZU
   22    22     1     0     0
SMALL
No Charge or Current Charge


@<TRIPOS>ATOM
      1 C1          -1.1680     0.9780    -0.4090 c6         1 PZU       0.351300
      2 C2          -1.3980    -0.5510    -0.7000 c6         1 PZU       0.162300
      3 O2          -2.7420    -0.9470    -0.3750 oh         1 PZU      -0.697000
      4 C3          -0.3860    -1.4300     0.0800 c6         1 PZU      -0.113400
      5 C4           1.0650    -0.9470    -0.1700 c6         1 PZU       0.142300
      6 O4           1.9760    -1.7250     0.6250 oh         1 PZU      -0.712000
      7 C5           1.1770     0.5810     0.1550 c6         1 PZU       0.176300
      8 O5           0.2100     1.3370    -0.6210 os         1 PZU      -0.490000
      9 C6           2.5690     1.1700    -0.1920 c3         1 PZU      -0.083100
     10 H1          -1.7980     1.5660    -1.0950 h2         1 PZU       0.054700
     11 O1          -1.4990     1.3140     0.9370 oh         1 PZU      -0.658000
     12 H2          -1.2240    -0.7120    -1.7750 h1         1 PZU       0.037700
     13 HO2         -2.9570    -0.4590     0.4560 ho         1 PZU       0.502000
     14 H3          -0.6080    -1.3910     1.1560 hc         1 PZU       0.068200
     15 H3A         -0.4930    -2.4790    -0.2270 hc         1 PZU       0.068200
     16 H4           1.2960    -1.0850    -1.2370 h1         1 PZU       0.034700
     17 HO4          1.9500    -2.6460     0.2750 ho         1 PZU       0.506000
     18 H5           0.9930     0.7440     1.2270 h1         1 PZU       0.060700
     19 H6           2.8110     1.0210    -1.2500 hc         1 PZU       0.046367
     20 H6A          2.6020     2.2460     0.0150 hc         1 PZU       0.046367
     21 H6B          3.3580     0.6960     0.4030 hc         1 PZU       0.046367
     22 HO1         -1.2080     2.2450     1.0420 ho         1 PZU       0.451000
@<TRIPOS>BOND
     1     1     2 1   
     2     1     8 1   
     3     1    10 1   
     4     1    11 1   
     5     2     3 1   
     6     2     4 1   
     7     2    12 1   
     8     3    13 1   
     9     4     5 1   
    10     4    14 1   
    11     4    15 1   
    12     5     6 1   
    13     5     7 1   
    14     5    16 1   
    15     6    17 1   
    16     7     8 1   
    17     7     9 1   
    18     7    18 1   
    19     9    19 1   
    20     9    20 1   
    21     9    21 1   
    22    11    22 1   
@<TRIPOS>SUBSTRUCTURE
     1 PZU         1 TEMP              0 ****  ****    0 ROOT
