@<TRIPOS>MOLECULE
PZU
   22    22     1     0     0
SMALL
bcc


@<TRIPOS>ATOM
      1 C1          -1.1080     0.9790    -0.1700 c6         1 PZU       0.304900
      2 C2          -1.3780    -0.4830    -0.5330 c6         1 PZU       0.139100
      3 O2          -2.6740    -0.8970    -0.1800 oh         1 PZU      -0.574800
      4 C3          -0.3650    -1.3810     0.1560 c6         1 PZU      -0.113400
      5 C4           1.0490    -0.9300    -0.1940 c6         1 PZU       0.119100
      6 O4           2.0280    -1.6520     0.5180 oh         1 PZU      -0.589800
      7 C5           1.2300     0.5490     0.1460 c6         1 PZU       0.153100
      8 O5           0.2170     1.3130    -0.4980 os         1 PZU      -0.443600
      9 C6           2.5620     1.1040    -0.3140 c3         1 PZU      -0.083100
     10 H1          -1.7180     1.6420    -0.7970 h2         1 PZU       0.054700
     11 O1          -1.3930     1.1650     1.1780 oh         1 PZU      -0.595800
     12 H2          -1.2270    -0.5610    -1.6200 h1         1 PZU       0.037700
     13 HO2         -3.3050    -0.4480    -0.7520 ho         1 PZU       0.403000
     14 H3          -0.5010    -1.3480     1.2410 hc         1 PZU       0.068200
     15 H3A         -0.5160    -2.4170    -0.1640 hc         1 PZU       0.068200
     16 H4           1.1940    -1.0430    -1.2800 h1         1 PZU       0.034700
     17 HO4          1.9640    -2.5780     0.2630 ho         1 PZU       0.407000
     18 H5           1.1510     0.6620     1.2360 h1         1 PZU       0.060700
     19 H6           2.6890     0.9850    -1.3910 hc         1 PZU       0.046367
     20 H6A          2.6420     2.1650    -0.0750 hc         1 PZU       0.046367
     21 H6B          3.3840     0.5920     0.1840 hc         1 PZU       0.046367
     22 HO1         -1.3970     2.1080     1.3690 ho         1 PZU       0.412000
@<TRIPOS>BOND
     1     1     2 1   
     2     1     8 1   
     3     1    10 1   
     4     1    11 1   
     5     2     3 1   
     6     2     4 1   
     7     2    12 1   
     8     3    13 1   
     9     4     5 1   
    10     4    14 1   
    11     4    15 1   
    12     5     6 1   
    13     5     7 1   
    14     5    16 1   
    15     6    17 1   
    16     7     8 1   
    17     7     9 1   
    18     7    18 1   
    19     9    19 1   
    20     9    20 1   
    21     9    21 1   
    22    11    22 1   
@<TRIPOS>SUBSTRUCTURE
     1 PZU         1 TEMP              0 ****  ****    0 ROOT
