@<TRIPOS>MOLECULE
PZW
   41    44     1     0     0
SMALL
No Charge or Current Charge


@<TRIPOS>ATOM
      1 C1           3.0700     3.0380     0.5800 c3         1 PZW      -0.040800
      2 C2           1.8040     2.2060     0.3710 ca         1 PZW      -0.142300
      3 C3           0.5750     2.8630     0.1840 ca         1 PZW      -0.055000
      4 C4          -0.6020     2.1290    -0.0210 ca         1 PZW       0.020100
      5 O5          -1.7780     2.8290    -0.2030 os         1 PZW      -0.319100
      6 C6          -2.8840     2.1430    -0.8350 c6         1 PZW       0.124300
      7 C7          -2.9970     0.6870    -0.3840 c2         1 PZW       0.532200
      8 N8          -4.1550     0.1300    -0.1820 n2         1 PZW      -0.489300
      9 N9          -4.3030    -1.1870     0.2630 ns         1 PZW      -0.261900
     10 C10         -3.2500    -2.0780     0.3900 c          1 PZW       0.548000
     11 O11         -3.4170    -3.2120     0.8250 o          1 PZW      -0.540000
     12 C12         -1.8590    -1.5180    -0.0270 c6         1 PZW       0.153500
     13 C13         -1.4370    -2.1860    -1.3670 c3         1 PZW      -0.115100
     14 N14         -1.8040    -0.0200    -0.1750 nh         1 PZW      -0.780400
     15 C15         -0.5820     0.7070    -0.0180 ca         1 PZW       0.292000
     16 C16          0.6570     0.0610     0.1730 ca         1 PZW      -0.208000
     17 C17          1.8400     0.7950     0.3600 ca         1 PZW       0.324000
     18 N18          3.0590     0.1330     0.5390 nu         1 PZW      -0.926200
     19 C19          3.3600    -1.3030     0.4270 cy         1 PZW       0.185500
     20 C20          3.4950    -1.9230    -1.0140 cy         1 PZW       0.109300
     21 N21          4.9640    -1.6140    -0.9110 n6         1 PZW      -0.846400
     22 C22          4.8600    -1.7600     0.5810 cy         1 PZW       0.109300
     23 H1           3.5440     2.8020     1.5400 hc         1 PZW       0.042367
     24 H2           3.8020     2.8490    -0.2150 hc         1 PZW       0.042367
     25 H3           2.8570     4.1130     0.5780 hc         1 PZW       0.042367
     26 H4           0.5280     3.9490     0.1880 ha         1 PZW       0.128000
     27 H5          -3.8140     2.6850    -0.6170 h1         1 PZW       0.079700
     28 H6          -2.7310     2.1580    -1.9210 h1         1 PZW       0.079700
     29 H7          -5.2090    -1.5470     0.5530 hn         1 PZW       0.353500
     30 H8          -1.1800    -1.8540     0.7690 h1         1 PZW       0.094700
     31 H9          -0.4420    -1.8610    -1.6900 hc         1 PZW       0.053367
     32 H10         -1.4110    -3.2780    -1.2720 hc         1 PZW       0.053367
     33 H11         -2.1410    -1.9380    -2.1700 hc         1 PZW       0.053367
     34 H12          0.7140    -1.0180     0.1770 ha         1 PZW       0.119000
     35 H13          3.8690     0.7520     0.5500 hn         1 PZW       0.478000
     36 H14          2.6780    -1.8530     1.0880 h1         1 PZW       0.076700
     37 H15          3.2440    -2.9920    -1.0390 h1         1 PZW       0.055200
     38 H16          2.9340    -1.3950    -1.7950 h1         1 PZW       0.055200
     39 H17          5.6240    -2.2350    -1.3980 hn         1 PZW       0.412000
     40 H19          5.4860    -1.0930     1.1870 h1         1 PZW       0.055200
     41 H20          4.9500    -2.7880     0.9550 h1         1 PZW       0.055200
@<TRIPOS>BOND
     1     1     2 1   
     2     1    23 1   
     3     1    24 1   
     4     1    25 1   
     5     2     3 ar  
     6     2    17 ar  
     7     3     4 ar  
     8     3    26 1   
     9     4     5 1   
    10     4    15 ar  
    11     5     6 1   
    12     6     7 1   
    13     6    27 1   
    14     6    28 1   
    15     7     8 2   
    16     7    14 1   
    17     8     9 1   
    18     9    10 1   
    19     9    29 1   
    20    10    11 2   
    21    10    12 1   
    22    12    13 1   
    23    12    14 1   
    24    12    30 1   
    25    13    31 1   
    26    13    32 1   
    27    13    33 1   
    28    14    15 1   
    29    15    16 ar  
    30    16    17 ar  
    31    16    34 1   
    32    17    18 1   
    33    18    19 1   
    34    18    35 1   
    35    19    20 1   
    36    19    22 1   
    37    19    36 1   
    38    20    21 1   
    39    20    37 1   
    40    20    38 1   
    41    21    22 1   
    42    21    39 1   
    43    22    40 1   
    44    22    41 1   
@<TRIPOS>SUBSTRUCTURE
     1 PZW         1 TEMP              0 ****  ****    0 ROOT
