@<TRIPOS>MOLECULE
PZW
   41    44     1     0     0
SMALL
abcg2


@<TRIPOS>ATOM
      1 C1           3.0250     3.0290     0.6210 c3         1 PZW      -0.040800
      2 C2           1.7910     2.1970     0.4380 ca         1 PZW      -0.142300
      3 C3           0.5540     2.7930     0.2460 ca         1 PZW      -0.055000
      4 C4          -0.6020     2.0470     0.0920 ca         1 PZW       0.020100
      5 O5          -1.8000     2.6800    -0.0670 os         1 PZW      -0.319100
      6 C6          -2.6720     1.9710    -0.9230 c6         1 PZW       0.124300
      7 C7          -2.8640     0.5820    -0.4000 c2         1 PZW       0.532200
      8 N8          -4.0350     0.0790    -0.3580 n2         1 PZW      -0.489300
      9 N9          -4.1300    -1.1790     0.1680 ns         1 PZW      -0.261900
     10 C10         -3.1140    -2.0230     0.4170 c          1 PZW       0.548000
     11 O11         -3.2710    -3.1360     0.8870 o          1 PZW      -0.540000
     12 C12         -1.7420    -1.5240     0.0060 c6         1 PZW       0.153500
     13 C13         -1.3620    -2.1200    -1.3500 c3         1 PZW      -0.115100
     14 N14         -1.7300    -0.0690    -0.0020 nh         1 PZW      -0.780400
     15 C15         -0.5370     0.6560     0.1130 ca         1 PZW       0.292000
     16 C16          0.7010     0.0400     0.2810 ca         1 PZW      -0.208000
     17 C17          1.8670     0.7910     0.4490 ca         1 PZW       0.324000
     18 N18          3.0880     0.1820     0.6620 nu         1 PZW      -0.926200
     19 C19          3.2580    -1.2340     0.4800 cy         1 PZW       0.185500
     20 C20          3.1870    -1.7680    -0.9720 cy         1 PZW       0.109300
     21 N21          4.6560    -1.7490    -1.0310 n6         1 PZW      -0.846400
     22 C22          4.7360    -1.6520     0.4330 cy         1 PZW       0.109300
     23 H1           3.5380     2.7880     1.5550 hc         1 PZW       0.042367
     24 H2           3.7470     2.8770    -0.1870 hc         1 PZW       0.042367
     25 H3           2.7830     4.0900     0.6400 hc         1 PZW       0.042367
     26 H4           0.4790     3.8740     0.2290 ha         1 PZW       0.128000
     27 H5          -3.6230     2.4970    -0.9520 h1         1 PZW       0.079700
     28 H6          -2.2620     1.9280    -1.9400 h1         1 PZW       0.079700
     29 H7          -5.0760    -1.4950     0.3210 hn         1 PZW       0.353500
     30 H8          -1.0520    -1.8720     0.7750 h1         1 PZW       0.094700
     31 H9          -0.3770    -1.7750    -1.6650 hc         1 PZW       0.053367
     32 H10         -1.3310    -3.2070    -1.2910 hc         1 PZW       0.053367
     33 H11         -2.0820    -1.8370    -2.1190 hc         1 PZW       0.053367
     34 H12          0.7660    -1.0380     0.2790 ha         1 PZW       0.119000
     35 H13          3.8850     0.7320     0.3760 hn         1 PZW       0.478000
     36 H14          2.6470    -1.7750     1.2040 h1         1 PZW       0.076700
     37 H15          2.7450    -2.7690    -1.0180 h1         1 PZW       0.055200
     38 H16          2.6860    -1.1320    -1.7060 h1         1 PZW       0.055200
     39 H17          5.0740    -2.5830    -1.4210 hn         1 PZW       0.412000
     40 H19          5.4590    -0.9230     0.8110 h1         1 PZW       0.055200
     41 H20          4.9070    -2.6020     0.9460 h1         1 PZW       0.055200
@<TRIPOS>BOND
     1     1     2 1   
     2     1    23 1   
     3     1    24 1   
     4     1    25 1   
     5     2     3 ar  
     6     2    17 ar  
     7     3     4 ar  
     8     3    26 1   
     9     4     5 1   
    10     4    15 ar  
    11     5     6 1   
    12     6     7 1   
    13     6    27 1   
    14     6    28 1   
    15     7     8 2   
    16     7    14 1   
    17     8     9 1   
    18     9    10 1   
    19     9    29 1   
    20    10    11 2   
    21    10    12 1   
    22    12    13 1   
    23    12    14 1   
    24    12    30 1   
    25    13    31 1   
    26    13    32 1   
    27    13    33 1   
    28    14    15 1   
    29    15    16 ar  
    30    16    17 ar  
    31    16    34 1   
    32    17    18 1   
    33    18    19 1   
    34    18    35 1   
    35    19    20 1   
    36    19    22 1   
    37    19    36 1   
    38    20    21 1   
    39    20    37 1   
    40    20    38 1   
    41    21    22 1   
    42    21    39 1   
    43    22    40 1   
    44    22    41 1   
@<TRIPOS>SUBSTRUCTURE
     1 PZW         1 TEMP              0 ****  ****    0 ROOT
