@<TRIPOS>MOLECULE
PZX
   27    28     1     0     0
SMALL
abcg2


@<TRIPOS>ATOM
      1 C7           5.5700     0.7350     0.1670 c3         1 PZX      -0.030800
      2 C16          4.1150     0.4420     0.1010 cc         1 PZX      -0.155300
      3 C6           3.4200    -0.7430     0.0630 cd         1 PZX      -0.166000
      4 N8           3.1720     1.4100     0.0520 na         1 PZX       0.007800
      5 N12          1.9370     0.9580    -0.0140 nc         1 PZX      -0.458800
      6 C9           2.0680    -0.3600    -0.0090 cd         1 PZX       0.194500
      7 C10          0.9170    -1.2680    -0.0710 c          1 PZX       0.529600
      8 O14          1.0270    -2.4710    -0.0780 o          1 PZX      -0.488000
      9 O13         -0.2400    -0.6250    -0.1170 os         1 PZX      -0.419100
     10 C5          -1.4340    -1.4190    -0.1590 c3         1 PZX       0.216900
     11 C11         -2.5900    -0.4750    -0.0680 ca         1 PZX      -0.148300
     12 C3          -2.8970     0.1790     1.1210 ca         1 PZX      -0.045000
     13 C2          -3.9750     1.0470     1.1510 ca         1 PZX      -0.169000
     14 C1          -4.7100     1.2280    -0.0130 ca         1 PZX       0.344900
     15 N15         -4.4310     0.6110    -1.1530 nb         1 PZX      -0.668000
     16 C4          -3.3920    -0.2160    -1.1720 ca         1 PZX       0.356900
     17 H1           5.9360     1.1440    -0.7750 hc         1 PZX       0.054033
     18 H2           5.7980     1.4570     0.9520 hc         1 PZX       0.054033
     19 H3           6.1250    -0.1760     0.3750 hc         1 PZX       0.054033
     20 H4           3.8280    -1.7400     0.0850 ha         1 PZX       0.161000
     21 H5           3.3330     2.4060     0.0610 hn         1 PZX       0.373000
     22 H6          -1.4700    -1.9950    -1.0860 h1         1 PZX       0.057700
     23 H7          -1.4430    -2.1220     0.6760 h1         1 PZX       0.057700
     24 H8          -2.3060     0.0070     2.0120 ha         1 PZX       0.124000
     25 H9          -4.2460     1.5730     2.0560 ha         1 PZX       0.125000
     26 H10         -5.5630     1.8980    -0.0190 h4         1 PZX       0.019100
     27 H11         -3.1830    -0.7080    -2.1170 h4         1 PZX       0.020100
@<TRIPOS>BOND
     1     1     2 1   
     2     1    17 1   
     3     1    18 1   
     4     1    19 1   
     5     2     3 2   
     6     2     4 1   
     7     3     6 1   
     8     3    20 1   
     9     4     5 1   
    10     4    21 1   
    11     5     6 2   
    12     6     7 1   
    13     7     8 2   
    14     7     9 1   
    15     9    10 1   
    16    10    11 1   
    17    10    22 1   
    18    10    23 1   
    19    11    12 ar  
    20    11    16 ar  
    21    12    13 ar  
    22    12    24 1   
    23    13    14 ar  
    24    13    25 1   
    25    14    15 ar  
    26    14    26 1   
    27    15    16 ar  
    28    16    27 1   
@<TRIPOS>SUBSTRUCTURE
     1 PZX         1 TEMP              0 ****  ****    0 ROOT
