@<TRIPOS>MOLECULE
PZX
   27    28     1     0     0
SMALL
No Charge or Current Charge


@<TRIPOS>ATOM
      1 C7           5.7680     0.6110     0.0310 c3         1 PZX      -0.030800
      2 C16          4.2710     0.4650     0.0260 cc         1 PZX      -0.155300
      3 C6           3.4860    -0.6500     0.0340 cd         1 PZX      -0.166000
      4 N8           3.3500     1.5100     0.0110 na         1 PZX       0.007800
      5 N12          2.0300     1.0860     0.0100 nc         1 PZX      -0.458800
      6 C9           2.1300    -0.2410     0.0230 cd         1 PZX       0.194500
      7 C10          0.9500    -1.1740     0.0270 c          1 PZX       0.529600
      8 O14          1.0670    -2.3960     0.0400 o          1 PZX      -0.488000
      9 O13         -0.2780    -0.5510     0.0160 os         1 PZX      -0.419100
     10 C5          -1.4570    -1.3720     0.0190 c3         1 PZX       0.216900
     11 C11         -2.6690    -0.4580     0.0110 ca         1 PZX      -0.148300
     12 C3          -3.2080     0.0410     1.2110 ca         1 PZX      -0.045000
     13 C2          -4.3300     0.8820     1.1350 ca         1 PZX      -0.169000
     14 C1          -4.8710     1.1940    -0.1240 ca         1 PZX       0.344900
     15 N15         -4.3570     0.7200    -1.2820 nb         1 PZX      -0.668000
     16 C4          -3.2730    -0.0900    -1.2060 ca         1 PZX       0.356900
     17 H1           6.1140     1.1440    -0.8620 hc         1 PZX       0.054033
     18 H2           6.1050     1.1700     0.9120 hc         1 PZX       0.054033
     19 H3           6.2590    -0.3700     0.0470 hc         1 PZX       0.054033
     20 H4           3.8360    -1.6780     0.0460 ha         1 PZX       0.161000
     21 H5           3.5780     2.5030     0.0020 hn         1 PZX       0.373000
     22 H6          -1.4800    -2.0250    -0.8640 h1         1 PZX       0.057700
     23 H7          -1.4850    -2.0100     0.9120 h1         1 PZX       0.057700
     24 H8          -2.7690    -0.2140     2.1730 ha         1 PZX       0.124000
     25 H9          -4.7800     1.2910     2.0360 ha         1 PZX       0.125000
     26 H10         -5.7410     1.8440    -0.2090 h4         1 PZX       0.019100
     27 H11         -2.8800    -0.4560    -2.1540 h4         1 PZX       0.020100
@<TRIPOS>BOND
     1     1     2 1   
     2     1    17 1   
     3     1    18 1   
     4     1    19 1   
     5     2     3 2   
     6     2     4 1   
     7     3     6 1   
     8     3    20 1   
     9     4     5 1   
    10     4    21 1   
    11     5     6 2   
    12     6     7 1   
    13     7     8 2   
    14     7     9 1   
    15     9    10 1   
    16    10    11 1   
    17    10    22 1   
    18    10    23 1   
    19    11    12 ar  
    20    11    16 ar  
    21    12    13 ar  
    22    12    24 1   
    23    13    14 ar  
    24    13    25 1   
    25    14    15 ar  
    26    14    26 1   
    27    15    16 ar  
    28    16    27 1   
@<TRIPOS>SUBSTRUCTURE
     1 PZX         1 TEMP              0 ****  ****    0 ROOT
