@<TRIPOS>MOLECULE
PZY
   75    78     1     0     0
SMALL
abcg2


@<TRIPOS>ATOM
      1 N1           4.9490    -0.9430    -0.8270 nu         1 PZY      -0.918100
      2 N3           0.8900     1.6130     0.3320 n3         1 PZY      -0.719600
      3 C4           2.8470    -2.0200    -1.4270 ca         1 PZY      -0.186000
      4 C5           1.7440    -2.7690    -1.0680 ca         1 PZY      -0.066000
      5 C6           1.6220    -3.2630     0.2280 ca         1 PZY      -0.168000
      6 C7          -1.0570    -2.8580     0.7510 c3         1 PZY       0.057600
      7 C8          -2.3860    -3.4280     1.2320 c3         1 PZY      -0.023100
      8 C10         -4.3050    -2.1860     0.1700 ca         1 PZY      -0.108500
      9 C13         -4.5890    -0.5600     2.3950 ca         1 PZY      -0.112000
     10 C15          4.8390    -2.0560     1.8590 c          1 PZY       0.718600
     11 C17          1.9840     1.0140     1.0720 c6         1 PZY       0.150300
     12 C20         -0.3870     1.3050     0.9430 c3         1 PZY       0.212100
     13 C21         -1.5220     2.0950     0.3500 ca         1 PZY      -0.080300
     14 C22         -1.4160     3.4690     0.1630 ca         1 PZY      -0.098000
     15 C24         -3.6820     3.5960    -0.7000 ca         1 PZY      -0.075300
     16 C26         -2.7160     1.4790    -0.0040 ca         1 PZY      -0.098000
     17 C28         -6.0250     4.2710    -0.2150 c3         1 PZY      -0.080767
     18 C1           2.6460    -3.0340     1.1350 ca         1 PZY      -0.017000
     19 C2           3.7710    -2.2870     0.7980 ca         1 PZY      -0.204600
     20 C3           3.8510    -1.7510    -0.4970 ca         1 PZY       0.329000
     21 S1           0.1920    -4.1890     0.7100 ss         1 PZY      -0.247000
     22 C9          -3.4550    -2.3700     1.2590 ca         1 PZY      -0.075300
     23 C11         -5.2900    -1.2070     0.1930 ca         1 PZY      -0.112000
     24 C12         -5.4360    -0.3930     1.3070 ca         1 PZY      -0.116000
     25 C14         -3.6070    -1.5410     2.3690 ca         1 PZY      -0.108500
     26 O1           4.6800    -2.5960     2.9580 o          1 PZY      -0.691000
     27 O2           5.8170    -1.3240     1.5370 o          1 PZY      -0.691000
     28 S2           4.7210     0.5110    -1.5800 s6         1 PZY       1.300200
     29 O3           5.8860     1.2960    -1.2070 o          1 PZY      -0.576500
     30 O4           4.4620     0.3070    -2.9950 o          1 PZY      -0.576500
     31 N2           3.3480     1.0950    -0.9240 n3         1 PZY      -0.821500
     32 C16          3.3210     1.4340     0.4910 c6         1 PZY       0.232300
     33 C18          0.9360     1.2120    -1.0620 c6         1 PZY       0.150300
     34 C19          2.2450     1.6380    -1.7010 c6         1 PZY       0.232300
     35 C23         -2.4750     4.2040    -0.3530 ca         1 PZY      -0.116000
     36 C25         -3.7740     2.2170    -0.5140 ca         1 PZY      -0.116000
     37 C27         -4.8820     4.3690    -1.2350 c3         1 PZY       0.003300
     38 C29         -4.5640     5.8470    -1.4620 c3         1 PZY      -0.080767
     39 C30         -5.3360     3.7690    -2.5730 c3         1 PZY      -0.080767
     40 H1           5.5800    -0.9010     0.0150 hn         1 PZY       0.580000
     41 H3           2.9250    -1.6480    -2.4390 ha         1 PZY       0.126000
     42 H4           0.9710    -2.9650    -1.8010 ha         1 PZY       0.103000
     43 H5          -1.1590    -2.4300    -0.2470 h1         1 PZY       0.059700
     44 H6          -0.7060    -2.0730     1.4230 h1         1 PZY       0.059700
     45 H7          -2.6910    -4.2460     0.5750 hc         1 PZY       0.056700
     46 H8          -2.2580    -3.8530     2.2310 hc         1 PZY       0.056700
     47 H9          -4.2030    -2.8240    -0.7010 ha         1 PZY       0.114500
     48 H10         -4.6960     0.0720     3.2680 ha         1 PZY       0.109000
     49 H11          1.9330     1.3440     2.1120 h1         1 PZY       0.044200
     50 H12          1.9250    -0.0870     1.0730 h1         1 PZY       0.044200
     51 H13         -0.6250     0.2290     0.8810 h1         1 PZY       0.039200
     52 H14         -0.3050     1.5350     2.0100 h1         1 PZY       0.039200
     53 H15         -0.4910     3.9720     0.4160 ha         1 PZY       0.123000
     54 H16         -2.8310     0.4080     0.1260 ha         1 PZY       0.123000
     55 H17         -6.9090     4.8000    -0.5770 hc         1 PZY       0.032589
     56 H18         -6.3140     3.2360    -0.0240 hc         1 PZY       0.032589
     57 H19         -5.7350     4.7160     0.7390 hc         1 PZY       0.032589
     58 H20          2.5670    -3.4250     2.1410 ha         1 PZY       0.145000
     59 H21         -5.9460    -1.0850    -0.6600 ha         1 PZY       0.109000
     60 H22         -6.2010     0.3730     1.3250 ha         1 PZY       0.107000
     61 H23         -2.9560    -1.6720     3.2260 ha         1 PZY       0.114500
     62 H25          3.4720     2.5100     0.6230 h1         1 PZY       0.058200
     63 H26          4.1210     0.9210     1.0250 h1         1 PZY       0.058200
     64 H27          0.8150     0.1210    -1.1740 h1         1 PZY       0.044200
     65 H28          0.1200     1.6920    -1.6050 h1         1 PZY       0.044200
     66 H29          2.3070     2.7310    -1.7290 h1         1 PZY       0.058200
     67 H30          2.2890     1.2690    -2.7220 h1         1 PZY       0.058200
     68 H31         -2.3430     5.2710    -0.4780 ha         1 PZY       0.105500
     69 H32         -4.6880     1.6970    -0.7720 ha         1 PZY       0.105500
     70 H33         -4.2790     6.3520    -0.5370 hc         1 PZY       0.032589
     71 H34         -3.7570     5.9850    -2.1840 hc         1 PZY       0.032589
     72 H35         -5.4450     6.3590    -1.8520 hc         1 PZY       0.032589
     73 H36         -6.2010     4.3160    -2.9540 hc         1 PZY       0.032589
     74 H37         -4.5440     3.8310    -3.3210 hc         1 PZY       0.032589
     75 H38         -5.6270     2.7220    -2.4820 hc         1 PZY       0.032589
@<TRIPOS>BOND
     1     1    20 1   
     2     1    28 1   
     3     1    40 1   
     4     2    11 1   
     5     2    12 1   
     6     2    33 1   
     7     3     4 ar  
     8     3    20 ar  
     9     3    41 1   
    10     4     5 ar  
    11     4    42 1   
    12     5    18 ar  
    13     5    21 1   
    14     6     7 1   
    15     6    21 1   
    16     6    43 1   
    17     6    44 1   
    18     7    22 1   
    19     7    45 1   
    20     7    46 1   
    21     8    22 ar  
    22     8    23 ar  
    23     8    47 1   
    24     9    24 ar  
    25     9    25 ar  
    26     9    48 1   
    27    10    19 1   
    28    10    26 1   
    29    10    27 1   
    30    11    32 1   
    31    11    49 1   
    32    11    50 1   
    33    12    13 1   
    34    12    51 1   
    35    12    52 1   
    36    13    14 ar  
    37    13    16 ar  
    38    14    35 ar  
    39    14    53 1   
    40    15    35 ar  
    41    15    36 ar  
    42    15    37 1   
    43    16    36 ar  
    44    16    54 1   
    45    17    37 1   
    46    17    55 1   
    47    17    56 1   
    48    17    57 1   
    49    18    19 ar  
    50    18    58 1   
    51    19    20 ar  
    52    22    25 ar  
    53    23    24 ar  
    54    23    59 1   
    55    24    60 1   
    56    25    61 1   
    57    28    29 2   
    58    28    30 2   
    59    28    31 1   
    60    31    32 1   
    61    31    34 1   
    62    32    62 1   
    63    32    63 1   
    64    33    34 1   
    65    33    64 1   
    66    33    65 1   
    67    34    66 1   
    68    34    67 1   
    69    35    68 1   
    70    36    69 1   
    71    37    38 1   
    72    37    39 1   
    73    38    70 1   
    74    38    71 1   
    75    38    72 1   
    76    39    73 1   
    77    39    74 1   
    78    39    75 1   
@<TRIPOS>SUBSTRUCTURE
     1 PZY         1 TEMP              0 ****  ****    0 ROOT
