@<TRIPOS>MOLECULE
PZY
   75    78     1     0     0
SMALL
No Charge or Current Charge


@<TRIPOS>ATOM
      1 N1           4.9560    -1.1760    -1.1670 nu         1 PZY      -0.918100
      2 N3           0.5580     1.5320     0.3980 n3         1 PZY      -0.719600
      3 C4           2.9280    -2.4340    -1.4270 ca         1 PZY      -0.186000
      4 C5           1.8760    -3.1750    -0.8790 ca         1 PZY      -0.066000
      5 C6           1.9420    -3.5840     0.4580 ca         1 PZY      -0.168000
      6 C7          -0.7470    -3.0110     1.0210 c3         1 PZY       0.057600
      7 C8          -2.0630    -3.3550     1.7380 c3         1 PZY      -0.023100
      8 C10         -4.0320    -2.1900     0.6190 ca         1 PZY      -0.108500
      9 C13         -3.8980    -0.0600     2.4460 ca         1 PZY      -0.112000
     10 C15          5.3490    -2.2400     1.5620 c          1 PZY       0.718600
     11 C17          1.5770     0.6790     1.0880 c6         1 PZY       0.150300
     12 C20         -0.8030     1.2950     0.9380 c3         1 PZY       0.212100
     13 C21         -1.8860     2.1680     0.3130 ca         1 PZY      -0.080300
     14 C22         -1.9890     3.5280     0.6500 ca         1 PZY      -0.098000
     15 C24         -3.9400     3.7850    -0.8210 ca         1 PZY      -0.075300
     16 C26         -2.8050     1.6190    -0.5960 ca         1 PZY      -0.098000
     17 C28         -6.4500     4.0070    -1.0630 c3         1 PZY      -0.080767
     18 C1           3.0890    -3.3110     1.2220 ca         1 PZY      -0.017000
     19 C2           4.1560    -2.5520     0.6840 ca         1 PZY      -0.204600
     20 C3           4.0380    -2.0690    -0.6430 ca         1 PZY       0.329000
     21 S1           0.5200    -4.3430     1.2200 ss         1 PZY      -0.247000
     22 C9          -3.0590    -2.2060     1.6380 ca         1 PZY      -0.075300
     23 C11         -4.9350    -1.1180     0.5180 ca         1 PZY      -0.112000
     24 C12         -4.8690    -0.0530     1.4310 ca         1 PZY      -0.116000
     25 C14         -2.9960    -1.1330     2.5500 ca         1 PZY      -0.108500
     26 O1           5.5220    -2.9210     2.5620 o          1 PZY      -0.691000
     27 O2           6.0950    -1.3220     1.2490 o          1 PZY      -0.691000
     28 S2           4.5560     0.3330    -1.6590 s6         1 PZY       1.300200
     29 O3           5.5130     1.2510    -1.0500 o          1 PZY      -0.576500
     30 O4           4.3890     0.2450    -3.1100 o          1 PZY      -0.576500
     31 N2           3.0290     0.5780    -0.9550 n3         1 PZY      -0.821500
     32 C16          3.0150     0.8490     0.5060 c6         1 PZY       0.232300
     33 C18          0.6420     1.3380    -1.0890 c6         1 PZY       0.150300
     34 C19          2.0930     1.4910    -1.6570 c6         1 PZY       0.232300
     35 C23         -3.0010     4.3280     0.0920 ca         1 PZY      -0.116000
     36 C25         -3.8170     2.4160    -1.1540 ca         1 PZY      -0.116000
     37 C27         -5.0810     4.6270    -1.4550 c3         1 PZY       0.003300
     38 C29         -5.0760     6.1100    -0.9880 c3         1 PZY      -0.080767
     39 C30         -4.9320     4.6120    -3.0000 c3         1 PZY      -0.080767
     40 H1           5.6310    -0.9110    -0.4520 hn         1 PZY       0.580000
     41 H3           2.8480    -2.0780    -2.4500 ha         1 PZY       0.126000
     42 H4           0.9950    -3.3920    -1.4790 ha         1 PZY       0.103000
     43 H5          -0.9390    -2.8500    -0.0470 h1         1 PZY       0.059700
     44 H6          -0.3390    -2.0820     1.4400 h1         1 PZY       0.059700
     45 H7          -2.4830    -4.2700     1.3030 hc         1 PZY       0.056700
     46 H8          -1.8510    -3.5790     2.7910 hc         1 PZY       0.056700
     47 H9          -4.0870    -3.0070    -0.0970 ha         1 PZY       0.114500
     48 H10         -3.8410     0.7680     3.1500 ha         1 PZY       0.109000
     49 H11          1.6030     0.9110     2.1630 h1         1 PZY       0.044200
     50 H12          1.3020    -0.3830     0.9970 h1         1 PZY       0.044200
     51 H13         -1.0790     0.2410     0.7970 h1         1 PZY       0.039200
     52 H14         -0.8060     1.4760     2.0220 h1         1 PZY       0.039200
     53 H15         -1.2800     3.9650     1.3500 ha         1 PZY       0.123000
     54 H16         -2.7410     0.5670    -0.8650 ha         1 PZY       0.123000
     55 H17         -7.2790     4.5990    -1.4680 hc         1 PZY       0.032589
     56 H18         -6.5570     2.9860    -1.4450 hc         1 PZY       0.032589
     57 H19         -6.5600     3.9720     0.0280 hc         1 PZY       0.032589
     58 H20          3.1220    -3.6450     2.2580 ha         1 PZY       0.145000
     59 H21         -5.6830    -1.1100    -0.2720 ha         1 PZY       0.109000
     60 H22         -5.5630     0.7810     1.3480 ha         1 PZY       0.107000
     61 H23         -2.2440    -1.1280     3.3360 ha         1 PZY       0.114500
     62 H25          3.3680     1.8700     0.7130 h1         1 PZY       0.058200
     63 H26          3.6840     0.1650     1.0450 h1         1 PZY       0.058200
     64 H27          0.2800     0.3330    -1.3530 h1         1 PZY       0.044200
     65 H28         -0.0080     2.0570    -1.6080 h1         1 PZY       0.044200
     66 H29          2.4180     2.5370    -1.5500 h1         1 PZY       0.058200
     67 H30          2.0580     1.2690    -2.7330 h1         1 PZY       0.058200
     68 H31         -3.0350     5.3720     0.3890 ha         1 PZY       0.105500
     69 H32         -4.5140     1.9530    -1.8480 ha         1 PZY       0.105500
     70 H33         -5.2070     6.1830     0.0990 hc         1 PZY       0.032589
     71 H34         -4.1380     6.6080    -1.2620 hc         1 PZY       0.032589
     72 H35         -5.8950     6.6700    -1.4560 hc         1 PZY       0.032589
     73 H36         -5.7070     5.2270    -3.4750 hc         1 PZY       0.032589
     74 H37         -3.9550     5.0100    -3.2980 hc         1 PZY       0.032589
     75 H38         -5.0220     3.5980    -3.4070 hc         1 PZY       0.032589
@<TRIPOS>BOND
     1     1    20 1   
     2     1    28 1   
     3     1    40 1   
     4     2    11 1   
     5     2    12 1   
     6     2    33 1   
     7     3     4 ar  
     8     3    20 ar  
     9     3    41 1   
    10     4     5 ar  
    11     4    42 1   
    12     5    18 ar  
    13     5    21 1   
    14     6     7 1   
    15     6    21 1   
    16     6    43 1   
    17     6    44 1   
    18     7    22 1   
    19     7    45 1   
    20     7    46 1   
    21     8    22 ar  
    22     8    23 ar  
    23     8    47 1   
    24     9    24 ar  
    25     9    25 ar  
    26     9    48 1   
    27    10    19 1   
    28    10    26 1   
    29    10    27 1   
    30    11    32 1   
    31    11    49 1   
    32    11    50 1   
    33    12    13 1   
    34    12    51 1   
    35    12    52 1   
    36    13    14 ar  
    37    13    16 ar  
    38    14    35 ar  
    39    14    53 1   
    40    15    35 ar  
    41    15    36 ar  
    42    15    37 1   
    43    16    36 ar  
    44    16    54 1   
    45    17    37 1   
    46    17    55 1   
    47    17    56 1   
    48    17    57 1   
    49    18    19 ar  
    50    18    58 1   
    51    19    20 ar  
    52    22    25 ar  
    53    23    24 ar  
    54    23    59 1   
    55    24    60 1   
    56    25    61 1   
    57    28    29 2   
    58    28    30 2   
    59    28    31 1   
    60    31    32 1   
    61    31    34 1   
    62    32    62 1   
    63    32    63 1   
    64    33    34 1   
    65    33    64 1   
    66    33    65 1   
    67    34    66 1   
    68    34    67 1   
    69    35    68 1   
    70    36    69 1   
    71    37    38 1   
    72    37    39 1   
    73    38    70 1   
    74    38    71 1   
    75    38    72 1   
    76    39    73 1   
    77    39    74 1   
    78    39    75 1   
@<TRIPOS>SUBSTRUCTURE
     1 PZY         1 TEMP              0 ****  ****    0 ROOT
