@<TRIPOS>MOLECULE
PZZ
   37    38     1     0     0
SMALL
bcc


@<TRIPOS>ATOM
      1 C2           0.9780    -1.2390    -1.4580 cc         1 PZZ      -0.113100
      2 C3           1.7980    -0.3530    -0.8230 cd         1 PZZ      -0.140400
      3 N1          -0.3270    -0.8530    -1.3230 na         1 PZZ      -0.175400
      4 C4           1.1750     1.7970     0.5100 ca         1 PZZ      -0.062000
      5 C5           0.0930     2.5630     0.8920 ca         1 PZZ      -0.166000
      6 C6          -1.2170     2.1990     0.5360 ca         1 PZZ      -0.103000
      7 C7          -1.4910     1.0640    -0.2060 ca         1 PZZ      -0.103300
      8 C8           0.9430     0.6440    -0.2510 ca         1 PZZ      -0.083800
      9 C9          -0.3830     0.2990    -0.5890 ca         1 PZZ      -0.043200
     10 C10          3.2870    -0.3950    -0.7570 c3         1 PZZ       0.242000
     11 N11          3.7880    -0.3730     0.6070 n3         1 PZZ      -0.711600
     12 C12          3.3970    -1.5500     1.3510 c3         1 PZZ       0.150100
     13 C13          5.2230    -0.2000     0.6290 c3         1 PZZ       0.150100
     14 C14         -2.8920     0.6440    -0.5470 c3         1 PZZ      -0.024100
     15 C15         -3.4050    -0.4680     0.3710 c3         1 PZZ      -0.084400
     16 C16         -4.7980    -0.9180    -0.0230 c3         1 PZZ       0.139400
     17 O17         -5.2270    -1.9230     0.8700 oh         1 PZZ      -0.597800
     18 H2           1.2300    -2.1340    -2.0070 h4         1 PZZ       0.159000
     19 HN1         -1.1090    -1.3470    -1.7160 hn         1 PZZ       0.298700
     20 H4           2.1830     2.0710     0.7940 ha         1 PZZ       0.145000
     21 H5           0.2490     3.4600     1.4780 ha         1 PZZ       0.128000
     22 H6          -2.0420     2.8270     0.8550 ha         1 PZZ       0.124000
     23 H101         3.6510    -1.2770    -1.3130 h1         1 PZZ       0.032700
     24 H102         3.7000     0.4810    -1.2690 h1         1 PZZ       0.032700
     25 H121         3.8000    -2.4830     0.9260 h1         1 PZZ       0.029700
     26 H122         3.7490    -1.4720     2.3800 h1         1 PZZ       0.029700
     27 H123         2.3110    -1.6410     1.3770 h1         1 PZZ       0.029700
     28 H131         5.4990     0.7200     0.1110 h1         1 PZZ       0.029700
     29 H132         5.5740    -0.1190     1.6590 h1         1 PZZ       0.029700
     30 H133         5.7720    -1.0300     0.1540 h1         1 PZZ       0.029700
     31 H141        -3.5570     1.5080    -0.4760 hc         1 PZZ       0.041200
     32 H142        -2.9430     0.3100    -1.5890 hc         1 PZZ       0.041200
     33 H151        -2.7230    -1.3230     0.3420 hc         1 PZZ       0.057200
     34 H152        -3.4140    -0.1060     1.4030 hc         1 PZZ       0.057200
     35 H161        -5.4740    -0.0530    -0.0070 h1         1 PZZ       0.013700
     36 H162        -4.7780    -1.2840    -1.0590 h1         1 PZZ       0.013700
     37 HO17        -6.1140    -2.1920     0.6150 ho         1 PZZ       0.403000
@<TRIPOS>BOND
     1     1     2 2   
     2     1     3 1   
     3     1    18 1   
     4     2     8 1   
     5     2    10 1   
     6     3     9 1   
     7     3    19 1   
     8     4     5 ar  
     9     4     8 ar  
    10     4    20 1   
    11     5     6 ar  
    12     5    21 1   
    13     6     7 ar  
    14     6    22 1   
    15     7     9 ar  
    16     7    14 1   
    17     8     9 ar  
    18    10    11 1   
    19    10    23 1   
    20    10    24 1   
    21    11    12 1   
    22    11    13 1   
    23    12    25 1   
    24    12    26 1   
    25    12    27 1   
    26    13    28 1   
    27    13    29 1   
    28    13    30 1   
    29    14    15 1   
    30    14    31 1   
    31    14    32 1   
    32    15    16 1   
    33    15    33 1   
    34    15    34 1   
    35    16    17 1   
    36    16    35 1   
    37    16    36 1   
    38    17    37 1   
@<TRIPOS>SUBSTRUCTURE
     1 PZZ         1 TEMP              0 ****  ****    0 ROOT
