@<TRIPOS>MOLECULE
PZZ
   37    38     1     0     0
SMALL
No Charge or Current Charge


@<TRIPOS>ATOM
      1 C2           1.0810    -1.2820    -1.4760 cc         1 PZZ      -0.163100
      2 C3           1.8170    -0.2910    -0.8340 cd         1 PZZ      -0.140400
      3 N1          -0.2680    -0.8920    -1.3320 na         1 PZZ      -0.225700
      4 C4           1.1590     1.8760     0.4270 ca         1 PZZ      -0.044000
      5 C5           0.0430     2.6460     0.8180 ca         1 PZZ      -0.148000
      6 C6          -1.2680     2.2310     0.4800 ca         1 PZZ      -0.085000
      7 C7          -1.4840     1.0400    -0.2540 ca         1 PZZ      -0.103300
      8 C8           0.9150     0.7030    -0.2980 ca         1 PZZ      -0.083800
      9 C9          -0.3490     0.2980    -0.6260 ca         1 PZZ      -0.043200
     10 C10          3.3250    -0.2530    -0.7240 c3         1 PZZ       0.242000
     11 N11          3.8290    -0.4470     0.6580 n3         1 PZZ      -0.711600
     12 C12          3.4230    -1.7420     1.2500 c3         1 PZZ       0.150100
     13 C13          5.2860    -0.2150     0.7610 c3         1 PZZ       0.150100
     14 C14         -2.8950     0.5880    -0.6120 c3         1 PZZ      -0.024100
     15 C15         -3.4530    -0.4360     0.4000 c3         1 PZZ      -0.084400
     16 C16         -4.8800    -0.9040     0.0580 c3         1 PZZ       0.162600
     17 O17         -5.3270    -1.8480     1.0360 oh         1 PZZ      -0.660000
     18 H2           1.3930    -2.1830    -1.9970 h4         1 PZZ       0.209000
     19 HN1         -1.0670    -1.4040    -1.6930 hn         1 PZZ       0.349000
     20 H4           2.1720     2.1790     0.6840 ha         1 PZZ       0.127000
     21 H5           0.1910     3.5620     1.3840 ha         1 PZZ       0.110000
     22 H6          -2.1170     2.8360     0.7920 ha         1 PZZ       0.106000
     23 H101         3.7460    -1.0200    -1.3880 h1         1 PZZ       0.032700
     24 H102         3.6610     0.7200    -1.1070 h1         1 PZZ       0.032700
     25 H121         3.8320    -2.5820     0.6720 h1         1 PZZ       0.029700
     26 H122         3.7880    -1.8270     2.2830 h1         1 PZZ       0.029700
     27 H123         2.3300    -1.8400     1.2750 h1         1 PZZ       0.029700
     28 H131         5.5470     0.7860     0.3910 h1         1 PZZ       0.029700
     29 H132         5.6180    -0.2850     1.8050 h1         1 PZZ       0.029700
     30 H133         5.8430    -0.9550     0.1710 h1         1 PZZ       0.029700
     31 H141        -3.5680     1.4540    -0.6510 hc         1 PZZ       0.041200
     32 H142        -2.9090     0.1490    -1.6170 hc         1 PZZ       0.041200
     33 H151        -2.7870    -1.3070     0.4370 hc         1 PZZ       0.057200
     34 H152        -3.4500     0.0120     1.4010 hc         1 PZZ       0.057200
     35 H161        -5.5520    -0.0360     0.0340 h1         1 PZZ       0.013700
     36 H162        -4.8830    -1.3630    -0.9400 h1         1 PZZ       0.013700
     37 HO17        -6.2380    -2.1150     0.7800 ho         1 PZZ       0.442000
@<TRIPOS>BOND
     1     1     2 2   
     2     1     3 1   
     3     1    18 1   
     4     2     8 1   
     5     2    10 1   
     6     3     9 1   
     7     3    19 1   
     8     4     5 ar  
     9     4     8 ar  
    10     4    20 1   
    11     5     6 ar  
    12     5    21 1   
    13     6     7 ar  
    14     6    22 1   
    15     7     9 ar  
    16     7    14 1   
    17     8     9 ar  
    18    10    11 1   
    19    10    23 1   
    20    10    24 1   
    21    11    12 1   
    22    11    13 1   
    23    12    25 1   
    24    12    26 1   
    25    12    27 1   
    26    13    28 1   
    27    13    29 1   
    28    13    30 1   
    29    14    15 1   
    30    14    31 1   
    31    14    32 1   
    32    15    16 1   
    33    15    33 1   
    34    15    34 1   
    35    16    17 1   
    36    16    35 1   
    37    16    36 1   
    38    17    37 1   
@<TRIPOS>SUBSTRUCTURE
     1 PZZ         1 TEMP              0 ****  ****    0 ROOT
