@<TRIPOS>MOLECULE
Q00
   46    47     1     0     0
SMALL
No Charge or Current Charge


@<TRIPOS>ATOM
      1 N           -2.6170     1.7920     0.0190 n8         1 Q00      -0.896800
      2 C1          -2.2110     0.3770    -0.0960 c3         1 Q00       0.166500
      3 C2          -0.7830     0.2690    -0.6850 c3         1 Q00      -0.119400
      4 C3          -3.2440    -0.4270    -0.9290 c3         1 Q00      -0.028100
      5 C4          -4.6340    -0.4870    -0.2980 ca         1 Q00      -0.048300
      6 C5          -5.7150     0.2080    -0.8770 ca         1 Q00      -0.117500
      7 C6          -4.8520    -1.2560     0.8630 ca         1 Q00      -0.117500
      8 C7          -6.9960     0.1390    -0.2990 ca         1 Q00      -0.134000
      9 C8          -6.1320    -1.3250     1.4410 ca         1 Q00      -0.134000
     10 C9          -7.2040    -0.6270     0.8600 ca         1 Q00      -0.141000
     11 C10          0.3140     0.8930     0.2040 c3         1 Q00       0.167800
     12 N2           1.6370     0.6660    -0.4020 n7         1 Q00      -0.773200
     13 C11          2.8140     1.1660     0.3960 c3         1 Q00       0.037500
     14 C            2.8790     2.7400     0.6260 c          1 Q00       0.927600
     15 O            3.3660     3.4620    -0.2420 o          1 Q00      -0.827300
     16 C13          4.1200     0.6290    -0.2470 c3         1 Q00      -0.032100
     17 C14          4.1980    -0.8960    -0.2600 ca         1 Q00      -0.055300
     18 C15          3.9970    -1.6120    -1.4570 ca         1 Q00      -0.132000
     19 C16          4.4710    -1.6020     0.9280 ca         1 Q00      -0.132000
     20 C17          4.0670    -3.0170    -1.4650 ca         1 Q00      -0.139000
     21 C18          4.5410    -3.0070     0.9200 ca         1 Q00      -0.139000
     22 C19          4.3390    -3.7140    -0.2770 ca         1 Q00      -0.155000
     23 OXT          2.4720     3.1930     1.6930 o          1 Q00      -0.827300
     24 H           -1.9020     2.3050     0.5410 hn         1 Q00       0.345800
     25 H25         -2.1900    -0.0490     0.9170 h1         1 Q00       0.052700
     26 H3          -0.5450    -0.7920    -0.8300 hc         1 Q00       0.042700
     27 H4          -0.7580     0.7360    -1.6770 hc         1 Q00       0.042700
     28 H5          -3.2990    -0.0050    -1.9400 hc         1 Q00       0.043700
     29 H6          -2.8720    -1.4510    -1.0560 hc         1 Q00       0.043700
     30 H7          -5.5630     0.8040    -1.7740 ha         1 Q00       0.128000
     31 H8          -4.0280    -1.8030     1.3170 ha         1 Q00       0.128000
     32 H9          -7.8250     0.6800    -0.7500 ha         1 Q00       0.120500
     33 H10         -6.2920    -1.9210     2.3370 ha         1 Q00       0.120500
     34 H11         -8.1950    -0.6810     1.3070 ha         1 Q00       0.118000
     35 H12          0.1270     1.9690     0.3200 h1         1 Q00       0.030700
     36 H13          0.2700     0.4330     1.2010 h1         1 Q00       0.030700
     37 H14          1.7560    -0.3440    -0.5250 hn         1 Q00       0.314800
     38 H15          2.7570     0.7180     1.3970 h1         1 Q00       0.006700
     39 H16          4.2140     1.0280    -1.2640 hc         1 Q00       0.062700
     40 H17          4.9750     1.0290     0.3120 hc         1 Q00       0.062700
     41 H18          3.7830    -1.0800    -2.3820 ha         1 Q00       0.136000
     42 H19          4.6280    -1.0610     1.8590 ha         1 Q00       0.136000
     43 H20          3.9100    -3.5630    -2.3930 ha         1 Q00       0.114500
     44 H21          4.7520    -3.5460     1.8420 ha         1 Q00       0.114500
     45 H22          4.3930    -4.8010    -0.2830 ha         1 Q00       0.112000
     46 H2          -2.6060     2.2170    -0.9120 hn         1 Q00       0.345800
@<TRIPOS>BOND
     1     1     2 1   
     2     1    24 1   
     3     1    46 1   
     4     2     3 1   
     5     2     4 1   
     6     2    25 1   
     7     3    11 1   
     8     3    26 1   
     9     3    27 1   
    10     4     5 1   
    11     4    28 1   
    12     4    29 1   
    13     5     6 ar  
    14     5     7 ar  
    15     6     8 ar  
    16     6    30 1   
    17     7     9 ar  
    18     7    31 1   
    19     8    10 ar  
    20     8    32 1   
    21     9    10 ar  
    22     9    33 1   
    23    10    34 1   
    24    11    12 1   
    25    11    35 1   
    26    11    36 1   
    27    12    13 1   
    28    12    37 1   
    29    13    14 1   
    30    13    16 1   
    31    13    38 1   
    32    14    15 1   
    33    14    23 1   
    34    16    17 1   
    35    16    39 1   
    36    16    40 1   
    37    17    18 ar  
    38    17    19 ar  
    39    18    20 ar  
    40    18    41 1   
    41    19    21 ar  
    42    19    42 1   
    43    20    22 ar  
    44    20    43 1   
    45    21    22 ar  
    46    21    44 1   
    47    22    45 1   
@<TRIPOS>SUBSTRUCTURE
     1 Q00         1 TEMP              0 ****  ****    0 ROOT
