@<TRIPOS>MOLECULE
Q00
   46    47     1     0     0
SMALL
bcc


@<TRIPOS>ATOM
      1 N           -2.6100     1.7420     0.1550 n8         1 Q00      -0.896800
      2 C1          -2.1720     0.3900    -0.1540 c3         1 Q00       0.166500
      3 C2          -0.7830     0.2920    -0.7930 c3         1 Q00      -0.119400
      4 C3          -3.2130    -0.2940    -1.0470 c3         1 Q00      -0.028100
      5 C4          -4.5470    -0.4520    -0.3780 ca         1 Q00      -0.048300
      6 C5          -5.5670     0.4780    -0.5600 ca         1 Q00      -0.117500
      7 C6          -4.7830    -1.5320     0.4710 ca         1 Q00      -0.117500
      8 C7          -6.7900     0.3330     0.0830 ca         1 Q00      -0.134000
      9 C8          -6.0010    -1.6810     1.1210 ca         1 Q00      -0.134000
     10 C9          -7.0110    -0.7470     0.9290 ca         1 Q00      -0.141000
     11 C10          0.3150     0.9140     0.0580 c3         1 Q00       0.167800
     12 N2           1.6240     0.6410    -0.4980 n7         1 Q00      -0.773200
     13 C11          2.7110     1.1580     0.3050 c3         1 Q00       0.037500
     14 C            2.7990     2.7040     0.2880 c          1 Q00       0.927600
     15 O            2.3060     3.3080    -0.6810 o          1 Q00      -0.827300
     16 C13          4.0490     0.6070    -0.2120 c3         1 Q00      -0.032100
     17 C14          4.1300    -0.8940    -0.1600 ca         1 Q00      -0.055300
     18 C15          4.0240    -1.6650    -1.3150 ca         1 Q00      -0.132000
     19 C16          4.2840    -1.5510     1.0620 ca         1 Q00      -0.132000
     20 C17          4.0730    -3.0530    -1.2560 ca         1 Q00      -0.139000
     21 C18          4.3340    -2.9360     1.1260 ca         1 Q00      -0.139000
     22 C19          4.2280    -3.6930    -0.0350 ca         1 Q00      -0.155000
     23 OXT          3.4100     3.2110     1.2520 o          1 Q00      -0.827300
     24 H           -1.9960     2.1600     0.8430 hn         1 Q00       0.345800
     25 H25         -2.1400    -0.1580     0.7960 h1         1 Q00       0.052700
     26 H3          -0.5510    -0.7670    -0.9590 hc         1 Q00       0.042700
     27 H4          -0.7960     0.7670    -1.7800 hc         1 Q00       0.042700
     28 H5          -3.3200     0.2820    -1.9720 hc         1 Q00       0.043700
     29 H6          -2.8300    -1.2760    -1.3380 hc         1 Q00       0.043700
     30 H7          -5.4050     1.3220    -1.2190 ha         1 Q00       0.128000
     31 H8          -4.0020    -2.2690     0.6250 ha         1 Q00       0.128000
     32 H9          -7.5720     1.0640    -0.0780 ha         1 Q00       0.120500
     33 H10         -6.1630    -2.5290     1.7750 ha         1 Q00       0.120500
     34 H11         -7.9630    -0.8610     1.4300 ha         1 Q00       0.118000
     35 H12          0.1790     1.9970     0.0980 h1         1 Q00       0.030700
     36 H13          0.2160     0.5500     1.0960 h1         1 Q00       0.030700
     37 H14          1.7260    -0.3660    -0.5670 hn         1 Q00       0.314800
     38 H15          2.6140     0.8510     1.3620 h1         1 Q00       0.006700
     39 H16          4.2000     0.9490    -1.2400 hc         1 Q00       0.062700
     40 H17          4.8500     1.0390     0.3920 hc         1 Q00       0.062700
     41 H18          3.9050    -1.1730    -2.2740 ha         1 Q00       0.136000
     42 H19          4.3700    -0.9690     1.9730 ha         1 Q00       0.136000
     43 H20          3.9910    -3.6340    -2.1660 ha         1 Q00       0.114500
     44 H21          4.4590    -3.4260     2.0830 ha         1 Q00       0.114500
     45 H22          4.2680    -4.7740     0.0130 ha         1 Q00       0.112000
     46 H2          -2.5360     2.3220    -0.6740 hn         1 Q00       0.345800
@<TRIPOS>BOND
     1     1     2 1   
     2     1    24 1   
     3     1    46 1   
     4     2     3 1   
     5     2     4 1   
     6     2    25 1   
     7     3    11 1   
     8     3    26 1   
     9     3    27 1   
    10     4     5 1   
    11     4    28 1   
    12     4    29 1   
    13     5     6 ar  
    14     5     7 ar  
    15     6     8 ar  
    16     6    30 1   
    17     7     9 ar  
    18     7    31 1   
    19     8    10 ar  
    20     8    32 1   
    21     9    10 ar  
    22     9    33 1   
    23    10    34 1   
    24    11    12 1   
    25    11    35 1   
    26    11    36 1   
    27    12    13 1   
    28    12    37 1   
    29    13    14 1   
    30    13    16 1   
    31    13    38 1   
    32    14    15 1   
    33    14    23 1   
    34    16    17 1   
    35    16    39 1   
    36    16    40 1   
    37    17    18 ar  
    38    17    19 ar  
    39    18    20 ar  
    40    18    41 1   
    41    19    21 ar  
    42    19    42 1   
    43    20    22 ar  
    44    20    43 1   
    45    21    22 ar  
    46    21    44 1   
    47    22    45 1   
@<TRIPOS>SUBSTRUCTURE
     1 Q00         1 TEMP              0 ****  ****    0 ROOT
