@<TRIPOS>MOLECULE
Q01
   76    79     1     0     0
SMALL
bcc


@<TRIPOS>ATOM
      1 C1          -4.2140    -2.9440     0.7550 ca         1 Q01       0.080600
      2 C2          -3.9410    -2.8770     2.1210 ca         1 Q01      -0.170000
      3 C3          -4.4500    -3.8520     2.9700 ca         1 Q01      -0.103500
      4 C4          -5.2260    -4.8950     2.4880 ca         1 Q01      -0.162000
      5 C5          -5.4920    -4.9620     1.1260 ca         1 Q01      -0.103500
      6 C6          -4.9940    -3.9970     0.2690 ca         1 Q01      -0.170000
      7 C8          -1.4410     0.6190    -1.1360 c3         1 Q01       0.012700
      8 C11          2.6430     2.8350    -1.7070 ca         1 Q01      -0.203600
      9 C12          4.0360     2.3960    -2.1470 c          1 Q01       0.927200
     10 C13          2.4230     3.7940    -0.7050 ca         1 Q01       0.158600
     11 C14          1.8390     2.1960     2.4870 c6         1 Q01       0.233300
     12 C15          1.2380     1.1360     1.5840 c6         1 Q01       0.159800
     13 C16          1.5900    -1.1450     0.8370 ca         1 Q01       0.144600
     14 C21         -1.5230    -4.6670    -1.2040 c3         1 Q01      -0.081767
     15 C23          0.7250    -5.4590    -1.8930 c3         1 Q01      -0.081767
     16 C24         -0.1210    -2.8650     0.8220 ca         1 Q01      -0.106500
     17 C25          0.4060    -1.6990     1.3440 ca         1 Q01      -0.172000
     18 C26          3.4270     0.4300     0.8940 c6         1 Q01       0.159800
     19 C27          4.0650     1.4920     1.7710 c6         1 Q01       0.233300
     20 O4           2.5630     4.9920     2.2420 o          1 Q01      -0.642300
     21 S1           3.5690     4.1310     1.6470 s6         1 Q01       1.426800
     22 O3           4.9680     4.3300     1.9830 o          1 Q01      -0.642300
     23 N2           3.1530     2.5980     2.0110 n3         1 Q01      -0.820500
     24 N3           2.1450     0.0060     1.4180 nh         1 Q01      -0.629000
     25 C19          0.4960    -3.5600    -0.2240 ca         1 Q01      -0.112300
     26 C20         -0.0810    -4.8770    -0.7300 c3         1 Q01       0.011300
     27 C22         -0.0740    -5.9010     0.4140 c3         1 Q01      -0.081767
     28 C18          1.6550    -2.9940    -0.7350 ca         1 Q01      -0.106500
     29 C17          2.1890    -1.8110    -0.2320 ca         1 Q01      -0.172000
     30 N1           3.5230     4.3270    -0.0060 nu         1 Q01      -0.700500
     31 O2           4.1070     1.5410    -3.0350 o          1 Q01      -0.797300
     32 O1           5.0160     2.9440    -1.5720 o          1 Q01      -0.797300
     33 C10          1.5360     2.2410    -2.3060 ca         1 Q01      -0.037000
     34 C28          1.1250     4.2110    -0.4100 ca         1 Q01      -0.196000
     35 C29          0.0420     3.6090    -1.0220 ca         1 Q01      -0.087000
     36 C9           0.2420     2.5870    -1.9460 ca         1 Q01      -0.033100
     37 S           -1.1450     1.6880    -2.5860 ss         1 Q01      -0.332000
     38 C7          -2.7600    -0.1170    -1.2870 c3         1 Q01      -0.144400
     39 C           -3.1230    -0.8380    -0.0010 c          1 Q01       0.677100
     40 O           -2.9120    -0.3480     1.0930 o          1 Q01      -0.581100
     41 N           -3.7230    -2.0390    -0.1920 ns         1 Q01      -0.475100
     42 H1          -3.3380    -2.0830     2.5290 ha         1 Q01       0.146000
     43 H2          -4.2280    -3.7880     4.0280 ha         1 Q01       0.127500
     44 H3          -5.6160    -5.6470     3.1610 ha         1 Q01       0.128000
     45 H4          -6.0910    -5.7690     0.7250 ha         1 Q01       0.127500
     46 H5          -5.2080    -4.0610    -0.7920 ha         1 Q01       0.146000
     47 H6          -0.6130    -0.0850    -1.0340 h1         1 Q01       0.079200
     48 H7          -1.4640     1.2490    -0.2490 h1         1 Q01       0.079200
     49 H8           1.1710     3.0520     2.5270 h1         1 Q01       0.060700
     50 H9           1.9400     1.8030     3.5040 h1         1 Q01       0.060700
     51 H10          0.3050     0.8080     2.0380 h1         1 Q01       0.054950
     52 H11          0.9870     1.5790     0.6110 h1         1 Q01       0.054950
     53 H12         -1.9410    -5.6010    -1.5850 hc         1 Q01       0.031367
     54 H13         -2.1670    -4.3310    -0.3930 hc         1 Q01       0.031367
     55 H14         -1.5760    -3.9220    -2.0010 hc         1 Q01       0.031367
     56 H15          0.7420    -4.7910    -2.7560 hc         1 Q01       0.031367
     57 H16          1.7570    -5.6740    -1.6110 hc         1 Q01       0.031367
     58 H17          0.2710    -6.3980    -2.2130 hc         1 Q01       0.031367
     59 H18         -1.0340    -3.2440     1.2690 ha         1 Q01       0.124000
     60 H19         -0.1120    -1.2270     2.1690 ha         1 Q01       0.143000
     61 H20          3.3350     0.8090    -0.1320 h1         1 Q01       0.054950
     62 H21          4.1100    -0.4200     0.8690 h1         1 Q01       0.054950
     63 H22          4.3520     1.0580     2.7330 h1         1 Q01       0.060700
     64 H23          4.9760     1.8400     1.2840 h1         1 Q01       0.060700
     65 H24         -0.5040    -6.8480     0.0810 hc         1 Q01       0.031367
     66 H25          0.9420    -6.0970     0.7620 hc         1 Q01       0.031367
     67 H26         -0.6580    -5.5580     1.2700 hc         1 Q01       0.031367
     68 H27          2.1830    -3.4660    -1.5530 ha         1 Q01       0.124000
     69 H28          3.0850    -1.4270    -0.6990 ha         1 Q01       0.143000
     70 H29          4.3870     3.9410    -0.4650 hn         1 Q01       0.512800
     71 H31          1.6970     1.4660    -3.0430 ha         1 Q01       0.165000
     72 H32          0.9600     5.0000     0.3100 ha         1 Q01       0.153000
     73 H33         -0.9620     3.9200    -0.7640 ha         1 Q01       0.127000
     74 H34         -3.5640     0.5970    -1.4940 hc         1 Q01       0.066200
     75 H35         -2.7220    -0.8040    -2.1350 hc         1 Q01       0.066200
     76 H36         -3.8650    -2.3150    -1.1510 hn         1 Q01       0.316500
@<TRIPOS>BOND
     1     1     2 ar  
     2     1     6 ar  
     3     1    41 1   
     4     2     3 ar  
     5     2    42 1   
     6     3     4 ar  
     7     3    43 1   
     8     4     5 ar  
     9     4    44 1   
    10     5     6 ar  
    11     5    45 1   
    12     6    46 1   
    13     7    37 1   
    14     7    38 1   
    15     7    47 1   
    16     7    48 1   
    17     8     9 1   
    18     8    10 ar  
    19     8    33 ar  
    20     9    31 1   
    21     9    32 1   
    22    10    30 1   
    23    10    34 ar  
    24    11    12 1   
    25    11    23 1   
    26    11    49 1   
    27    11    50 1   
    28    12    24 1   
    29    12    51 1   
    30    12    52 1   
    31    13    17 ar  
    32    13    24 1   
    33    13    29 ar  
    34    14    26 1   
    35    14    53 1   
    36    14    54 1   
    37    14    55 1   
    38    15    26 1   
    39    15    56 1   
    40    15    57 1   
    41    15    58 1   
    42    16    17 ar  
    43    16    25 ar  
    44    16    59 1   
    45    17    60 1   
    46    18    19 1   
    47    18    24 1   
    48    18    61 1   
    49    18    62 1   
    50    19    23 1   
    51    19    63 1   
    52    19    64 1   
    53    20    21 2   
    54    21    22 2   
    55    21    23 1   
    56    21    30 1   
    57    25    26 1   
    58    25    28 ar  
    59    26    27 1   
    60    27    65 1   
    61    27    66 1   
    62    27    67 1   
    63    28    29 ar  
    64    28    68 1   
    65    29    69 1   
    66    30    70 1   
    67    33    36 ar  
    68    33    71 1   
    69    34    35 ar  
    70    34    72 1   
    71    35    36 ar  
    72    35    73 1   
    73    36    37 1   
    74    38    39 1   
    75    38    74 1   
    76    38    75 1   
    77    39    40 2   
    78    39    41 1   
    79    41    76 1   
@<TRIPOS>SUBSTRUCTURE
     1 Q01         1 TEMP              0 ****  ****    0 ROOT
