@<TRIPOS>MOLECULE
Q01
   76    79     1     0     0
SMALL
No Charge or Current Charge


@<TRIPOS>ATOM
      1 C1          -4.2970    -2.1250    -0.3100 ca         1 Q01      -0.012000
      2 C2          -4.5070    -2.3500     1.0690 ca         1 Q01      -0.152000
      3 C3          -4.7150    -3.6540     1.5530 ca         1 Q01      -0.085500
      4 C4          -4.7150    -4.7430     0.6670 ca         1 Q01      -0.144000
      5 C5          -4.4960    -4.5300    -0.7030 ca         1 Q01      -0.085500
      6 C6          -4.2840    -3.2270    -1.1860 ca         1 Q01      -0.152000
      7 C8          -2.5060     2.2190    -0.8240 c3         1 Q01       0.060600
      8 C11          2.0930     3.9660    -1.6080 ca         1 Q01      -0.203600
      9 C12          3.3120     3.6530    -2.4510 c          1 Q01       0.716600
     10 C13          2.1930     4.4770    -0.2910 ca         1 Q01       0.297000
     11 C14          2.1670     1.7570     1.6460 c6         1 Q01       0.233300
     12 C15          1.5290     0.4770     1.0270 c6         1 Q01       0.159800
     13 C16          1.9460    -2.0020     0.8730 ca         1 Q01       0.283000
     14 C21         -1.3370    -5.8670     0.2130 c3         1 Q01      -0.081767
     15 C23          0.7750    -6.8590    -0.7160 c3         1 Q01      -0.081767
     16 C24          0.3910    -3.7410     1.6030 ca         1 Q01      -0.088500
     17 C25          0.9420    -2.4570     1.7430 ca         1 Q01      -0.154000
     18 C26          3.8290    -0.3330     0.4970 c6         1 Q01       0.159800
     19 C27          4.4020     0.9970     1.0950 c6         1 Q01       0.233300
     20 O4           3.5420     4.0190     2.7420 o          1 Q01      -0.571500
     21 S1           4.0580     3.6570     1.4220 s6         1 Q01       1.285200
     22 O3           5.4890     3.6730     1.1360 o          1 Q01      -0.571500
     23 N2           3.4440     2.1330     0.9760 n3         1 Q01      -0.820500
     24 N3           2.4670    -0.6920     1.0220 nh         1 Q01      -0.767400
     25 C19          0.8310    -4.6180     0.5850 ca         1 Q01      -0.112300
     26 C20          0.1880    -6.0250     0.4570 c3         1 Q01       0.011300
     27 C22          0.4210    -6.8180     1.7710 c3         1 Q01      -0.081767
     28 C18          1.8510    -4.1570    -0.2830 ca         1 Q01      -0.088500
     29 C17          2.3980    -2.8700    -0.1380 ca         1 Q01      -0.154000
     30 N1           3.4190     4.6700     0.3110 nu         1 Q01      -0.894100
     31 O2           3.1680     2.9440    -3.4360 o          1 Q01      -0.692000
     32 O1           4.3860     4.1550    -2.1460 o          1 Q01      -0.692000
     33 C10          0.8050     3.7050    -2.1330 ca         1 Q01      -0.019000
     34 C28          1.0320     4.7810     0.4400 ca         1 Q01      -0.178000
     35 C29         -0.2380     4.5100    -0.0880 ca         1 Q01      -0.069000
     36 C9          -0.3480     3.9540    -1.3700 ca         1 Q01      -0.160000
     37 S           -1.9490     3.5110    -2.0200 ss         1 Q01      -0.253000
     38 C7          -3.8210     1.5690    -1.2950 c3         1 Q01      -0.144400
     39 C           -4.2350     0.4420    -0.3430 c          1 Q01       0.610100
     40 O           -4.6960     0.6830     0.7660 o          1 Q01      -0.581100
     41 N           -4.0750    -0.8350    -0.8650 ns         1 Q01      -0.149000
     42 H1          -4.5010    -1.5310     1.7820 ha         1 Q01       0.128000
     43 H2          -4.8750    -3.8190     2.6160 ha         1 Q01       0.109500
     44 H3          -4.8760    -5.7510     1.0430 ha         1 Q01       0.110000
     45 H4          -4.4890    -5.3740    -1.3900 ha         1 Q01       0.109500
     46 H5          -4.1150    -3.0760    -2.2500 ha         1 Q01       0.128000
     47 H6          -1.7210     1.4550    -0.7470 h1         1 Q01       0.079200
     48 H7          -2.6410     2.6750     0.1650 h1         1 Q01       0.079200
     49 H8           1.4260     2.5630     1.5800 h1         1 Q01       0.060700
     50 H9           2.3350     1.5770     2.7180 h1         1 Q01       0.060700
     51 H10          0.6150     0.2460     1.5920 h1         1 Q01       0.054950
     52 H11          1.2210     0.7080    -0.0030 h1         1 Q01       0.054950
     53 H12         -1.8180    -6.8440     0.0820 hc         1 Q01       0.031367
     54 H13         -1.8310    -5.3670     1.0540 hc         1 Q01       0.031367
     55 H14         -1.5240    -5.2730    -0.6890 hc         1 Q01       0.031367
     56 H15          0.6150    -6.3570    -1.6780 hc         1 Q01       0.031367
     57 H16          1.8510    -7.0260    -0.5830 hc         1 Q01       0.031367
     58 H17          0.2950    -7.8430    -0.7750 hc         1 Q01       0.031367
     59 H18         -0.3860    -4.0490     2.2980 ha         1 Q01       0.106000
     60 H19          0.5860    -1.8130     2.5420 ha         1 Q01       0.125000
     61 H20          3.7820    -0.2210    -0.5960 h1         1 Q01       0.054950
     62 H21          4.5430    -1.1410     0.7130 h1         1 Q01       0.054950
     63 H22          4.6610     0.8250     2.1510 h1         1 Q01       0.060700
     64 H23          5.3410     1.2170     0.5670 h1         1 Q01       0.060700
     65 H24          0.0030    -7.8300     1.6980 hc         1 Q01       0.031367
     66 H25          1.4930    -6.9080     1.9830 hc         1 Q01       0.031367
     67 H26         -0.0530    -6.3270     2.6290 hc         1 Q01       0.031367
     68 H27          2.2360    -4.7780    -1.0870 ha         1 Q01       0.106000
     69 H28          3.1660    -2.5480    -0.8330 ha         1 Q01       0.125000
     70 H29          4.1560     4.5320    -0.3800 hn         1 Q01       0.568000
     71 H31          0.6930     3.2840    -3.1300 ha         1 Q01       0.147000
     72 H32          1.1200     5.1930     1.4410 ha         1 Q01       0.135000
     73 H33         -1.1280     4.7160     0.5020 ha         1 Q01       0.109000
     74 H34         -4.6040     2.3370    -1.3020 hc         1 Q01       0.066200
     75 H35         -3.6730     1.1750    -2.3070 hc         1 Q01       0.066200
     76 H36         -3.7260    -0.8550    -1.8140 hn         1 Q01       0.150000
@<TRIPOS>BOND
     1     1     2 ar  
     2     1     6 ar  
     3     1    41 1   
     4     2     3 ar  
     5     2    42 1   
     6     3     4 ar  
     7     3    43 1   
     8     4     5 ar  
     9     4    44 1   
    10     5     6 ar  
    11     5    45 1   
    12     6    46 1   
    13     7    37 1   
    14     7    38 1   
    15     7    47 1   
    16     7    48 1   
    17     8     9 1   
    18     8    10 ar  
    19     8    33 ar  
    20     9    31 1   
    21     9    32 1   
    22    10    30 1   
    23    10    34 ar  
    24    11    12 1   
    25    11    23 1   
    26    11    49 1   
    27    11    50 1   
    28    12    24 1   
    29    12    51 1   
    30    12    52 1   
    31    13    17 ar  
    32    13    24 1   
    33    13    29 ar  
    34    14    26 1   
    35    14    53 1   
    36    14    54 1   
    37    14    55 1   
    38    15    26 1   
    39    15    56 1   
    40    15    57 1   
    41    15    58 1   
    42    16    17 ar  
    43    16    25 ar  
    44    16    59 1   
    45    17    60 1   
    46    18    19 1   
    47    18    24 1   
    48    18    61 1   
    49    18    62 1   
    50    19    23 1   
    51    19    63 1   
    52    19    64 1   
    53    20    21 2   
    54    21    22 2   
    55    21    23 1   
    56    21    30 1   
    57    25    26 1   
    58    25    28 ar  
    59    26    27 1   
    60    27    65 1   
    61    27    66 1   
    62    27    67 1   
    63    28    29 ar  
    64    28    68 1   
    65    29    69 1   
    66    30    70 1   
    67    33    36 ar  
    68    33    71 1   
    69    34    35 ar  
    70    34    72 1   
    71    35    36 ar  
    72    35    73 1   
    73    36    37 1   
    74    38    39 1   
    75    38    74 1   
    76    38    75 1   
    77    39    40 2   
    78    39    41 1   
    79    41    76 1   
@<TRIPOS>SUBSTRUCTURE
     1 Q01         1 TEMP              0 ****  ****    0 ROOT
