@<TRIPOS>MOLECULE
Q02
   20    20     1     0     0
SMALL
No Charge or Current Charge


@<TRIPOS>ATOM
      1 O            3.1470     0.1480    -0.2770 o          1 Q02      -0.912167
      2 P            1.7930     0.2420     0.3470 p5         1 Q02       1.256500
      3 O1           1.7810    -0.5360     1.6220 o          1 Q02      -0.912167
      4 O2           1.4590     1.6720     0.6110 o          1 Q02      -0.912167
      5 C            0.5170    -0.5120    -0.8700 c3         1 Q02      -0.126200
      6 N            0.6490    -1.9480    -1.3610 n8         1 Q02      -0.999200
      7 C1          -0.9150    -0.2210    -0.4110 ca         1 Q02       0.060700
      8 C6          -1.4740    -0.9000     0.6930 ca         1 Q02      -0.112500
      9 C5          -2.7920    -0.6340     1.1040 ca         1 Q02      -0.131500
     10 C4          -3.5660     0.3120     0.4120 ca         1 Q02      -0.193000
     11 C3          -3.0220     0.9910    -0.6900 ca         1 Q02      -0.131500
     12 C2          -1.7040     0.7250    -1.1000 ca         1 Q02      -0.112500
     13 H3           0.7030     0.1130    -1.7540 h1         1 Q02       0.042700
     14 H4           1.6160    -2.1030    -1.6750 hn         1 Q02       0.380000
     15 H5           0.5620    -2.5840    -0.5570 hn         1 Q02       0.380000
     16 H7          -0.8820    -1.6340     1.2340 ha         1 Q02       0.117000
     17 H8          -3.2120    -1.1610     1.9560 ha         1 Q02       0.064500
     18 H9          -4.5850     0.5180     0.7290 ha         1 Q02       0.059000
     19 H10         -3.6210     1.7220    -1.2270 ha         1 Q02       0.064500
     20 H11         -1.2930     1.2550    -1.9560 ha         1 Q02       0.117000
@<TRIPOS>BOND
     1     1     2 1   
     2     2     3 1   
     3     2     4 1   
     4     2     5 1   
     5     5     6 1   
     6     5     7 1   
     7     5    13 1   
     8     6    14 1   
     9     6    15 1   
    10     7     8 ar  
    11     7    12 ar  
    12     8     9 ar  
    13     8    16 1   
    14     9    10 ar  
    15     9    17 1   
    16    10    11 ar  
    17    10    18 1   
    18    11    12 ar  
    19    11    19 1   
    20    12    20 1   
@<TRIPOS>SUBSTRUCTURE
     1 Q02         1 TEMP              0 ****  ****    0 ROOT
