@<TRIPOS>MOLECULE
Q02
   20    20     1     0     0
SMALL
abcg2


@<TRIPOS>ATOM
      1 O            3.0570     0.0440    -0.6090 o          1 Q02      -0.912167
      2 P            1.7250     0.4100     0.0660 p5         1 Q02       1.256500
      3 O1           1.5930    -0.1130     1.5020 o          1 Q02      -0.912167
      4 O2           1.3340     1.8810    -0.1120 o          1 Q02      -0.912167
      5 C            0.4610    -0.6040    -0.9010 c3         1 Q02      -0.126200
      6 N            0.7740    -2.0370    -0.8310 n8         1 Q02      -0.999200
      7 C1          -0.9330    -0.3150    -0.4470 ca         1 Q02       0.060700
      8 C6          -1.6480    -1.1850     0.3760 ca         1 Q02      -0.112500
      9 C5          -2.9300    -0.8730     0.8150 ca         1 Q02      -0.131500
     10 C4          -3.5320     0.3190     0.4390 ca         1 Q02      -0.193000
     11 C3          -2.8330     1.1960    -0.3840 ca         1 Q02      -0.131500
     12 C2          -1.5520     0.8850    -0.8120 ca         1 Q02      -0.112500
     13 H3           0.5380    -0.3050    -1.9540 h1         1 Q02       0.042700
     14 H4           1.7000    -2.1470    -1.2300 hn         1 Q02       0.380000
     15 H5           0.9200    -2.2590     0.1500 hn         1 Q02       0.380000
     16 H7          -1.2130    -2.1310     0.6710 ha         1 Q02       0.117000
     17 H8          -3.4610    -1.5700     1.4520 ha         1 Q02       0.064500
     18 H9          -4.5320     0.5600     0.7770 ha         1 Q02       0.059000
     19 H10         -3.2890     2.1290    -0.6920 ha         1 Q02       0.064500
     20 H11         -1.0170     1.5800    -1.4450 ha         1 Q02       0.117000
@<TRIPOS>BOND
     1     1     2 1   
     2     2     3 1   
     3     2     4 1   
     4     2     5 1   
     5     5     6 1   
     6     5     7 1   
     7     5    13 1   
     8     6    14 1   
     9     6    15 1   
    10     7     8 ar  
    11     7    12 ar  
    12     8     9 ar  
    13     8    16 1   
    14     9    10 ar  
    15     9    17 1   
    16    10    11 ar  
    17    10    18 1   
    18    11    12 ar  
    19    11    19 1   
    20    12    20 1   
@<TRIPOS>SUBSTRUCTURE
     1 Q02         1 TEMP              0 ****  ****    0 ROOT
