@<TRIPOS>MOLECULE
Q03
   26    26     1     0     0
SMALL
bcc


@<TRIPOS>ATOM
      1 O2           1.7010     1.6770     0.1080 o          1 Q03      -0.927500
      2 P            1.9820     0.1710     0.2330 p5         1 Q03       1.137700
      3 O            3.2050    -0.2690    -0.5830 o          1 Q03      -0.927500
      4 O1           2.0040    -0.3230     1.6920 o          1 Q03      -0.927500
      5 C            0.5190    -0.7580    -0.5030 c3         1 Q03       0.018300
      6 N            0.8080    -2.1770    -0.2950 n8         1 Q03      -0.848800
      7 C1          -0.8420    -0.2820     0.0590 c6         1 Q03      -0.050700
      8 C6          -1.9730    -1.3020    -0.1140 c6         1 Q03      -0.080900
      9 C5          -3.2970    -0.7980     0.4540 c6         1 Q03      -0.068400
     10 C4          -3.7060     0.5380    -0.1540 c6         1 Q03      -0.068400
     11 C3          -2.5910     1.5650     0.0030 c6         1 Q03      -0.068400
     12 C2          -1.2750     1.0460    -0.5660 c6         1 Q03      -0.080900
     13 H3           0.4970    -0.5880    -1.5910 h1         1 Q03       0.020700
     14 H4           0.9630    -2.3200     0.6960 hn         1 Q03       0.294800
     15 H5           0.0120    -2.7500    -0.5450 hn         1 Q03       0.294800
     16 H7          -0.7130    -0.1270     1.1400 hc         1 Q03       0.059700
     17 H8          -2.0990    -1.5280    -1.1810 hc         1 Q03       0.041200
     18 H9          -1.7220    -2.2470     0.3750 hc         1 Q03       0.041200
     19 H10         -4.0820    -1.5430     0.2960 hc         1 Q03       0.012950
     20 H11         -3.1980    -0.6820     1.5390 hc         1 Q03       0.012950
     21 H12         -3.9200     0.4000    -1.2200 hc         1 Q03       0.003200
     22 H13         -4.6320     0.8970     0.3040 hc         1 Q03       0.003200
     23 H14         -2.8700     2.5040    -0.4820 hc         1 Q03       0.012950
     24 H15         -2.4620     1.7960     1.0670 hc         1 Q03       0.012950
     25 H16         -0.4740     1.7720    -0.4320 hc         1 Q03       0.041200
     26 H17         -1.3930     0.8990    -1.6480 hc         1 Q03       0.041200
@<TRIPOS>BOND
     1     1     2 1   
     2     2     3 1   
     3     2     4 1   
     4     2     5 1   
     5     5     6 1   
     6     5     7 1   
     7     5    13 1   
     8     6    14 1   
     9     6    15 1   
    10     7     8 1   
    11     7    12 1   
    12     7    16 1   
    13     8     9 1   
    14     8    17 1   
    15     8    18 1   
    16     9    10 1   
    17     9    19 1   
    18     9    20 1   
    19    10    11 1   
    20    10    21 1   
    21    10    22 1   
    22    11    12 1   
    23    11    23 1   
    24    11    24 1   
    25    12    25 1   
    26    12    26 1   
@<TRIPOS>SUBSTRUCTURE
     1 Q03         1 TEMP              0 ****  ****    0 ROOT
