@<TRIPOS>MOLECULE
Q03
   26    26     1     0     0
SMALL
No Charge or Current Charge


@<TRIPOS>ATOM
      1 O2           1.9890     1.5020    -1.0360 o          1 Q03      -0.927500
      2 P            2.0360     0.3520    -0.0840 p5         1 Q03       1.295500
      3 O            3.3240    -0.3820    -0.2790 o          1 Q03      -0.927500
      4 O1           1.9670     0.8450     1.3250 o          1 Q03      -0.927500
      5 C            0.5560    -0.8530    -0.4220 c3         1 Q03      -0.139500
      6 N            0.7640    -2.3350    -0.1530 n8         1 Q03      -0.959200
      7 C1          -0.8500    -0.3890     0.1420 c6         1 Q03      -0.050700
      8 C6          -2.0210    -1.3330    -0.3020 c6         1 Q03      -0.080900
      9 C5          -3.3940    -0.8760     0.2510 c6         1 Q03      -0.068400
     10 C4          -3.7110     0.5780    -0.1600 c6         1 Q03      -0.068400
     11 C3          -2.5830     1.5290     0.2960 c6         1 Q03      -0.068400
     12 C2          -1.2070     1.0800    -0.2560 c6         1 Q03      -0.080900
     13 H3           0.4630    -0.7780    -1.5140 h1         1 Q03       0.020700
     14 H4           1.0100    -2.4690     0.8340 hn         1 Q03       0.350000
     15 H5          -0.1270    -2.8280    -0.2640 hn         1 Q03       0.350000
     16 H7          -0.7710    -0.4300     1.2380 hc         1 Q03       0.059700
     17 H8          -2.0670    -1.3770    -1.3990 hc         1 Q03       0.041200
     18 H9          -1.8510    -2.3610     0.0420 hc         1 Q03       0.041200
     19 H10         -4.1840    -1.5450    -0.1160 hc         1 Q03       0.012950
     20 H11         -3.3980    -0.9600     1.3470 hc         1 Q03       0.012950
     21 H12         -3.8310     0.6390    -1.2510 hc         1 Q03       0.003200
     22 H13         -4.6660     0.8920     0.2810 hc         1 Q03       0.003200
     23 H14         -2.8030     2.5510    -0.0390 hc         1 Q03       0.012950
     24 H15         -2.5490     1.5610     1.3940 hc         1 Q03       0.012950
     25 H16         -0.4530     1.7790     0.1260 hc         1 Q03       0.041200
     26 H17         -1.2010     1.1810    -1.3500 hc         1 Q03       0.041200
@<TRIPOS>BOND
     1     1     2 1   
     2     2     3 1   
     3     2     4 1   
     4     2     5 1   
     5     5     6 1   
     6     5     7 1   
     7     5    13 1   
     8     6    14 1   
     9     6    15 1   
    10     7     8 1   
    11     7    12 1   
    12     7    16 1   
    13     8     9 1   
    14     8    17 1   
    15     8    18 1   
    16     9    10 1   
    17     9    19 1   
    18     9    20 1   
    19    10    11 1   
    20    10    21 1   
    21    10    22 1   
    22    11    12 1   
    23    11    23 1   
    24    11    24 1   
    25    12    25 1   
    26    12    26 1   
@<TRIPOS>SUBSTRUCTURE
     1 Q03         1 TEMP              0 ****  ****    0 ROOT
