@<TRIPOS>MOLECULE
Q04
   29    29     1     0     0
SMALL
No Charge or Current Charge


@<TRIPOS>ATOM
      1 O            2.5750     0.2750    -1.7990 o          1 Q04      -0.930833
      2 P            2.7020     0.1830    -0.3140 p5         1 Q04       1.298500
      3 O1           3.7430    -0.8330     0.0310 o          1 Q04      -0.930833
      4 O2           3.0990     1.5110     0.2450 o          1 Q04      -0.930833
      5 C            1.0130    -0.3500     0.4540 c3         1 Q04      -0.144500
      6 N            0.8830    -0.6600     1.9330 n8         1 Q04      -0.958200
      7 C1          -0.1110     0.6470     0.0350 c3         1 Q04      -0.079400
      8 C2          -1.5950     0.2250     0.3160 c6         1 Q04      -0.058700
      9 C7          -2.5710     1.3760    -0.0660 c6         1 Q04      -0.072400
     10 C6          -4.0470     0.9940     0.2090 c6         1 Q04      -0.072900
     11 C5          -4.4350    -0.3080    -0.5300 c6         1 Q04      -0.068400
     12 C4          -3.4770    -1.4640    -0.1560 c6         1 Q04      -0.072900
     13 C3          -1.9990    -1.0840    -0.4260 c6         1 Q04      -0.072400
     14 H3           0.8180    -1.2930    -0.0710 h1         1 Q04       0.024700
     15 H4           1.1660     0.1640     2.4760 hn         1 Q04       0.344500
     16 H5          -0.1080    -0.7860     2.1620 hn         1 Q04       0.344500
     17 H7           0.0900     1.6080     0.5250 hc         1 Q04       0.050200
     18 H8          -0.0100     0.8430    -1.0390 hc         1 Q04       0.050200
     19 H9          -1.6870     0.0570     1.3980 hc         1 Q04       0.021700
     20 H10         -2.3200     2.2840     0.4990 hc         1 Q04       0.041950
     21 H11         -2.4520     1.6300    -1.1290 hc         1 Q04       0.041950
     22 H12         -4.2020     0.8670     1.2890 hc         1 Q04       0.015950
     23 H13         -4.7080     1.8120    -0.1080 hc         1 Q04       0.015950
     24 H14         -5.4680    -0.5840    -0.2830 hc         1 Q04       0.014200
     25 H15         -4.4060    -0.1410    -1.6160 hc         1 Q04       0.014200
     26 H16         -3.6050    -1.7200     0.9050 hc         1 Q04       0.015950
     27 H17         -3.7400    -2.3640    -0.7280 hc         1 Q04       0.015950
     28 H18         -1.8430    -0.9640    -1.5070 hc         1 Q04       0.041950
     29 H19         -1.3580    -1.9170    -0.1090 hc         1 Q04       0.041950
@<TRIPOS>BOND
     1     1     2 1   
     2     2     3 1   
     3     2     4 1   
     4     2     5 1   
     5     5     6 1   
     6     5     7 1   
     7     5    14 1   
     8     6    15 1   
     9     6    16 1   
    10     7     8 1   
    11     7    17 1   
    12     7    18 1   
    13     8     9 1   
    14     8    13 1   
    15     8    19 1   
    16     9    10 1   
    17     9    20 1   
    18     9    21 1   
    19    10    11 1   
    20    10    22 1   
    21    10    23 1   
    22    11    12 1   
    23    11    24 1   
    24    11    25 1   
    25    12    13 1   
    26    12    26 1   
    27    12    27 1   
    28    13    28 1   
    29    13    29 1   
@<TRIPOS>SUBSTRUCTURE
     1 Q04         1 TEMP              0 ****  ****    0 ROOT
