@<TRIPOS>MOLECULE
Q04
   29    29     1     0     0
SMALL
abcg2


@<TRIPOS>ATOM
      1 O            2.5200     0.5340    -1.6560 o          1 Q04      -0.930833
      2 P            2.6450     0.2260    -0.1560 p5         1 Q04       1.298500
      3 O1           3.6220    -0.9190     0.1460 o          1 Q04      -0.930833
      4 O2           2.8760     1.4750     0.7140 o          1 Q04      -0.930833
      5 C            0.9530    -0.3810     0.3640 c3         1 Q04      -0.144500
      6 N            0.9640    -0.6280     1.8060 n8         1 Q04      -0.958200
      7 C1          -0.1380     0.5950    -0.0880 c3         1 Q04      -0.079400
      8 C2          -1.5790     0.2120     0.2490 c6         1 Q04      -0.058700
      9 C7          -2.5430     1.3440    -0.1100 c6         1 Q04      -0.072400
     10 C6          -3.9920     0.9970     0.2180 c6         1 Q04      -0.072900
     11 C5          -4.4180    -0.2970    -0.4670 c6         1 Q04      -0.068400
     12 C4          -3.4690    -1.4390    -0.1180 c6         1 Q04      -0.072900
     13 C3          -2.0200    -1.0810    -0.4370 c6         1 Q04      -0.072400
     14 H3           0.7820    -1.3460    -0.1320 h1         1 Q04       0.024700
     15 H4           1.2600     0.2280     2.2620 hn         1 Q04       0.344500
     16 H5           0.0250    -0.8110     2.1430 hn         1 Q04       0.344500
     17 H7           0.0830     1.5730     0.3550 hc         1 Q04       0.050200
     18 H8          -0.0570     0.7310    -1.1710 hc         1 Q04       0.050200
     19 H9          -1.6640     0.0590     1.3350 hc         1 Q04       0.021700
     20 H10         -2.2450     2.2590     0.4120 hc         1 Q04       0.041950
     21 H11         -2.4560     1.5600    -1.1820 hc         1 Q04       0.041950
     22 H12         -4.0990     0.8810     1.3020 hc         1 Q04       0.015950
     23 H13         -4.6540     1.8170    -0.0730 hc         1 Q04       0.015950
     24 H14         -5.4430    -0.5560    -0.1910 hc         1 Q04       0.014200
     25 H15         -4.4170    -0.1480    -1.5530 hc         1 Q04       0.014200
     26 H16         -3.5580    -1.6650     0.9510 hc         1 Q04       0.015950
     27 H17         -3.7600    -2.3480    -0.6500 hc         1 Q04       0.015950
     28 H18         -1.9070    -0.9580    -1.5220 hc         1 Q04       0.041950
     29 H19         -1.3620    -1.9060    -0.1530 hc         1 Q04       0.041950
@<TRIPOS>BOND
     1     1     2 1   
     2     2     3 1   
     3     2     4 1   
     4     2     5 1   
     5     5     6 1   
     6     5     7 1   
     7     5    14 1   
     8     6    15 1   
     9     6    16 1   
    10     7     8 1   
    11     7    17 1   
    12     7    18 1   
    13     8     9 1   
    14     8    13 1   
    15     8    19 1   
    16     9    10 1   
    17     9    20 1   
    18     9    21 1   
    19    10    11 1   
    20    10    22 1   
    21    10    23 1   
    22    11    12 1   
    23    11    24 1   
    24    11    25 1   
    25    12    13 1   
    26    12    26 1   
    27    12    27 1   
    28    13    28 1   
    29    13    29 1   
@<TRIPOS>SUBSTRUCTURE
     1 Q04         1 TEMP              0 ****  ****    0 ROOT
