@<TRIPOS>MOLECULE
Q05
   51    53     1     0     0
SMALL
No Charge or Current Charge


@<TRIPOS>ATOM
      1 F23          7.6430    -3.3130     0.9490 f          1 Q05      -0.180000
      2 C23          7.4600    -2.0410     0.5320 ca         1 Q05       0.171000
      3 C24          8.5400    -1.1460     0.5300 ca         1 Q05      -0.153000
      4 C25          8.3490     0.1780     0.0980 ca         1 Q05      -0.083000
      5 C22          6.1890    -1.6240     0.1050 ca         1 Q05      -0.152000
      6 C21          5.9900    -0.2990    -0.3310 ca         1 Q05      -0.051300
      7 C26          7.0770     0.5980    -0.3310 ca         1 Q05      -0.124000
      8 C20          4.6130     0.1610    -0.7900 c3         1 Q05      -0.037100
      9 C19          3.7920     0.7660     0.3660 c3         1 Q05       0.162800
     10 N18          2.4670     1.2060    -0.1130 n7         1 Q05      -0.866400
     11 C17          1.6060     1.8230     0.9120 c3         1 Q05       0.207100
     12 C15          0.2520     2.1990     0.3220 ca         1 Q05      -0.057300
     13 C14          0.0830     3.4280    -0.3440 ca         1 Q05      -0.122000
     14 C13         -1.1660     3.7770    -0.8850 ca         1 Q05      -0.080000
     15 C12         -2.2570     2.8990    -0.7650 ca         1 Q05      -0.193000
     16 C16         -0.8450     1.3220     0.4380 ca         1 Q05      -0.142000
     17 C11         -2.0970     1.6640    -0.1000 ca         1 Q05       0.143100
     18 O09         -3.1300     0.7610     0.0480 os         1 Q05      -0.351100
     19 C08         -4.4540     1.0120    -0.4730 c3         1 Q05       0.109300
     20 C06         -5.3700    -0.1770    -0.1720 ca         1 Q05       0.393300
     21 N01         -6.4840     0.0670     0.5650 nb         1 Q05      -0.767000
     22 C02         -7.2740    -0.9650     0.8150 ca         1 Q05       0.618900
     23 N02         -8.3190    -0.5930     1.5520 nv         1 Q05      -1.077900
     24 C03         -7.0530    -2.2750     0.3870 ca         1 Q05      -0.233000
     25 C04         -5.9090    -2.5410    -0.3800 ca         1 Q05      -0.000300
     26 C05         -5.0550    -1.4610    -0.6600 ca         1 Q05      -0.194000
     27 C07         -5.6010    -3.9420    -0.8810 c3         1 Q05      -0.054800
     28 H1           9.5210    -1.4770     0.8620 ha         1 Q05       0.131000
     29 H2           9.1830     0.8770     0.0950 ha         1 Q05       0.117000
     30 H3           5.3630    -2.3300     0.1150 ha         1 Q05       0.129000
     31 H4           6.9350     1.6250    -0.6620 ha         1 Q05       0.119000
     32 H5           4.7140     0.9080    -1.5880 hc         1 Q05       0.056700
     33 H6           4.0600    -0.6800    -1.2250 hc         1 Q05       0.056700
     34 H7           3.6820     0.0120     1.1580 h1         1 Q05       0.033700
     35 H8           4.3460     1.6150     0.7880 h1         1 Q05       0.033700
     36 H9           1.9700     0.3880    -0.4840 hn         1 Q05       0.412000
     37 H11          1.4510     1.1300     1.7510 h1         1 Q05       0.038200
     38 H12          2.0820     2.7260     1.3200 h1         1 Q05       0.038200
     39 H13          0.9230     4.1120    -0.4440 ha         1 Q05       0.128000
     40 H14         -1.2870     4.7280    -1.3990 ha         1 Q05       0.112000
     41 H15         -3.2110     3.1920    -1.1920 ha         1 Q05       0.119000
     42 H16         -0.7280     0.3700     0.9490 ha         1 Q05       0.123000
     43 H17         -4.8750     1.9220    -0.0250 h1         1 Q05       0.054700
     44 H18         -4.4180     1.1550    -1.5600 h1         1 Q05       0.054700
     45 H19         -8.2170     0.3170     1.9840 hn         1 Q05       0.480000
     46 H20         -8.7750    -1.3070     2.1080 hn         1 Q05       0.480000
     47 H21         -7.7530    -3.0640     0.6420 ha         1 Q05       0.119000
     48 H22         -4.1520    -1.6080    -1.2460 ha         1 Q05       0.138000
     49 H23         -5.0840    -3.9140    -1.8480 hc         1 Q05       0.047033
     50 H24         -4.9580    -4.4770    -0.1720 hc         1 Q05       0.047033
     51 H25         -6.5170    -4.5300    -1.0130 hc         1 Q05       0.047033
@<TRIPOS>BOND
     1     1     2 1   
     2     2     3 ar  
     3     2     5 ar  
     4     3     4 ar  
     5     3    28 1   
     6     4     7 ar  
     7     4    29 1   
     8     5     6 ar  
     9     5    30 1   
    10     6     7 ar  
    11     6     8 1   
    12     7    31 1   
    13     8     9 1   
    14     8    32 1   
    15     8    33 1   
    16     9    10 1   
    17     9    34 1   
    18     9    35 1   
    19    10    11 1   
    20    10    36 1   
    21    11    12 1   
    22    11    37 1   
    23    11    38 1   
    24    12    13 ar  
    25    12    16 ar  
    26    13    14 ar  
    27    13    39 1   
    28    14    15 ar  
    29    14    40 1   
    30    15    17 ar  
    31    15    41 1   
    32    16    17 ar  
    33    16    42 1   
    34    17    18 1   
    35    18    19 1   
    36    19    20 1   
    37    19    43 1   
    38    19    44 1   
    39    20    21 ar  
    40    20    26 ar  
    41    21    22 ar  
    42    22    23 1   
    43    22    24 ar  
    44    23    45 1   
    45    23    46 1   
    46    24    25 ar  
    47    24    47 1   
    48    25    26 ar  
    49    25    27 1   
    50    26    48 1   
    51    27    49 1   
    52    27    50 1   
    53    27    51 1   
@<TRIPOS>SUBSTRUCTURE
     1 Q05         1 TEMP              0 ****  ****    0 ROOT
