@<TRIPOS>MOLECULE
Q05
   51    53     1     0     0
SMALL
abcg2


@<TRIPOS>ATOM
      1 F23          8.3690    -2.7580    -0.7270 f          1 Q05      -0.180000
      2 C23          7.9760    -1.5120    -0.4180 ca         1 Q05       0.171000
      3 C24          8.8240    -0.7050     0.3140 ca         1 Q05      -0.153000
      4 C25          8.3990     0.5820     0.6150 ca         1 Q05      -0.083000
      5 C22          6.7350    -1.0830    -0.8490 ca         1 Q05      -0.152000
      6 C21          6.3140     0.2080    -0.5460 ca         1 Q05      -0.051300
      7 C26          7.1590     1.0350     0.1900 ca         1 Q05      -0.124000
      8 C20          4.9520     0.6820    -0.9670 c3         1 Q05      -0.037100
      9 C19          3.9220     0.4840     0.1420 c3         1 Q05       0.162800
     10 N18          2.6200     0.9590    -0.2780 n7         1 Q05      -0.866400
     11 C17          1.6090     0.8400     0.7510 c3         1 Q05       0.207100
     12 C15          0.2980     1.4250     0.2980 ca         1 Q05      -0.057300
     13 C14          0.2530     2.7010    -0.2660 ca         1 Q05      -0.122000
     14 C13         -0.9600     3.2410    -0.6490 ca         1 Q05      -0.080000
     15 C12         -2.1480     2.5310    -0.4920 ca         1 Q05      -0.193000
     16 C16         -0.8790     0.7100     0.4460 ca         1 Q05      -0.142000
     17 C11         -2.1030     1.2550     0.0540 ca         1 Q05       0.143100
     18 O09         -3.1870     0.4650     0.2410 os         1 Q05      -0.351100
     19 C08         -4.4430     0.9340    -0.1760 c3         1 Q05       0.109300
     20 C06         -5.4830    -0.1360     0.0030 ca         1 Q05       0.393300
     21 N01         -6.7200     0.2940    -0.2430 nb         1 Q05      -0.767000
     22 C02         -7.7180    -0.5750    -0.1600 ca         1 Q05       0.618900
     23 N02         -8.9610    -0.1170    -0.4720 nv         1 Q05      -1.077900
     24 C03         -7.5130    -1.9190     0.1990 ca         1 Q05      -0.233000
     25 C04         -6.2340    -2.3520     0.4660 ca         1 Q05      -0.000300
     26 C05         -5.1810    -1.4330     0.3600 ca         1 Q05      -0.194000
     27 C07         -5.9570    -3.7680     0.8670 c3         1 Q05      -0.054800
     28 H1           9.7890    -1.0680     0.6380 ha         1 Q05       0.131000
     29 H2           9.0450     1.2350     1.1860 ha         1 Q05       0.117000
     30 H3           6.1070    -1.7520    -1.4250 ha         1 Q05       0.129000
     31 H4           6.8490     2.0440     0.4300 ha         1 Q05       0.119000
     32 H5           4.9840     1.7400    -1.2350 hc         1 Q05       0.056700
     33 H6           4.6320     0.1410    -1.8610 hc         1 Q05       0.056700
     34 H7           3.9170    -0.5730     0.4510 h1         1 Q05       0.033700
     35 H8           4.2290     1.0570     1.0230 h1         1 Q05       0.033700
     36 H9           2.3200     0.4330    -1.0910 hn         1 Q05       0.412000
     37 H11          1.4520    -0.1960     1.0890 h1         1 Q05       0.038200
     38 H12          1.9560     1.3930     1.6300 h1         1 Q05       0.038200
     39 H13          1.1670     3.2630    -0.4000 ha         1 Q05       0.128000
     40 H14         -0.9980     4.2330    -1.0780 ha         1 Q05       0.112000
     41 H15         -3.0780     2.9930    -0.7950 ha         1 Q05       0.119000
     42 H16         -0.8590    -0.2870     0.8720 ha         1 Q05       0.123000
     43 H17         -4.7430     1.8250     0.3900 h1         1 Q05       0.054700
     44 H18         -4.4230     1.2270    -1.2340 h1         1 Q05       0.054700
     45 H19         -9.0830     0.8780    -0.5430 hn         1 Q05       0.480000
     46 H20         -9.7670    -0.6410    -0.1860 hn         1 Q05       0.480000
     47 H21         -8.3520    -2.6020     0.2580 ha         1 Q05       0.119000
     48 H22         -4.1640    -1.7400     0.5540 ha         1 Q05       0.138000
     49 H23         -5.1510    -4.1940     0.2680 hc         1 Q05       0.047033
     50 H24         -5.6410    -3.8180     1.9100 hc         1 Q05       0.047033
     51 H25         -6.8330    -4.4030     0.7540 hc         1 Q05       0.047033
@<TRIPOS>BOND
     1     1     2 1   
     2     2     3 ar  
     3     2     5 ar  
     4     3     4 ar  
     5     3    28 1   
     6     4     7 ar  
     7     4    29 1   
     8     5     6 ar  
     9     5    30 1   
    10     6     7 ar  
    11     6     8 1   
    12     7    31 1   
    13     8     9 1   
    14     8    32 1   
    15     8    33 1   
    16     9    10 1   
    17     9    34 1   
    18     9    35 1   
    19    10    11 1   
    20    10    36 1   
    21    11    12 1   
    22    11    37 1   
    23    11    38 1   
    24    12    13 ar  
    25    12    16 ar  
    26    13    14 ar  
    27    13    39 1   
    28    14    15 ar  
    29    14    40 1   
    30    15    17 ar  
    31    15    41 1   
    32    16    17 ar  
    33    16    42 1   
    34    17    18 1   
    35    18    19 1   
    36    19    20 1   
    37    19    43 1   
    38    19    44 1   
    39    20    21 ar  
    40    20    26 ar  
    41    21    22 ar  
    42    22    23 1   
    43    22    24 ar  
    44    23    45 1   
    45    23    46 1   
    46    24    25 ar  
    47    24    47 1   
    48    25    26 ar  
    49    25    27 1   
    50    26    48 1   
    51    27    49 1   
    52    27    50 1   
    53    27    51 1   
@<TRIPOS>SUBSTRUCTURE
     1 Q05         1 TEMP              0 ****  ****    0 ROOT
