@<TRIPOS>MOLECULE
Q06
   29    29     1     0     0
SMALL
bcc


@<TRIPOS>ATOM
      1 O2           3.9400    -0.2770     0.4640 o          1 Q06      -0.929167
      2 P            2.4790    -0.5320     0.0400 p5         1 Q06       1.115700
      3 O            2.2950    -0.6070    -1.4850 o          1 Q06      -0.929167
      4 O1           1.8340    -1.6990     0.8030 o          1 Q06      -0.929167
      5 C            1.6020     1.0360     0.5530 c3         1 Q06      -0.013700
      6 N            2.3090     2.2240     0.0340 n8         1 Q06      -0.898800
      7 C1           0.1430     1.1350     0.1230 c3         1 Q06      -0.017400
      8 C2          -0.8070     0.1270     0.7590 c3         1 Q06      -0.074400
      9 C3          -2.2700     0.3930     0.4330 c5         1 Q06      -0.052700
     10 C7          -3.2410    -0.6110     1.0700 c5         1 Q06      -0.078900
     11 C6          -4.5100    -0.6010     0.1900 c5         1 Q06      -0.080400
     12 C5          -4.1620     0.2720    -1.0320 c5         1 Q06      -0.080400
     13 C4          -2.6360     0.3210    -1.0500 c5         1 Q06      -0.078900
     14 H4           1.6320     1.1040     1.6510 h1         1 Q06       0.019700
     15 H5           3.2930     2.0870     0.2420 hn         1 Q06       0.319300
     16 H6           2.2730     2.1600    -0.9790 hn         1 Q06       0.319300
     17 H8          -0.2150     2.1480     0.3520 hc         1 Q06      -0.000800
     18 H9          -0.5350    -0.8820     0.4440 hc         1 Q06       0.063200
     19 H10         -0.6760     0.1450     1.8480 hc         1 Q06       0.063200
     20 H11         -2.5310     1.3990     0.7900 hc         1 Q06       0.016700
     21 H12         -2.7850    -1.6060     1.0650 hc         1 Q06       0.046450
     22 H13         -3.4510    -0.3700     2.1140 hc         1 Q06       0.046450
     23 H14         -4.7720    -1.6140    -0.1190 hc         1 Q06       0.015200
     24 H15         -5.3770    -0.2080     0.7250 hc         1 Q06       0.015200
     25 H16         -4.5920    -0.1090    -1.9590 hc         1 Q06       0.015200
     26 H17         -4.5510     1.2840    -0.8940 hc         1 Q06       0.015200
     27 H18         -2.2460     1.1570    -1.6330 hc         1 Q06       0.046450
     28 H19         -2.2240    -0.5990    -1.4820 hc         1 Q06       0.046450
     29 H2           0.0930     1.0360    -0.9670 hc         1 Q06      -0.000800
@<TRIPOS>BOND
     1     1     2 1   
     2     2     3 1   
     3     2     4 1   
     4     2     5 1   
     5     5     6 1   
     6     5     7 1   
     7     5    14 1   
     8     6    15 1   
     9     6    16 1   
    10     7     8 1   
    11     7    17 1   
    12     7    29 1   
    13     8     9 1   
    14     8    18 1   
    15     8    19 1   
    16     9    10 1   
    17     9    13 1   
    18     9    20 1   
    19    10    11 1   
    20    10    21 1   
    21    10    22 1   
    22    11    12 1   
    23    11    23 1   
    24    11    24 1   
    25    12    13 1   
    26    12    25 1   
    27    12    26 1   
    28    13    27 1   
    29    13    28 1   
@<TRIPOS>SUBSTRUCTURE
     1 Q06         1 TEMP              0 ****  ****    0 ROOT
