@<TRIPOS>MOLECULE
Q06
   29    29     1     0     0
SMALL
No Charge or Current Charge


@<TRIPOS>ATOM
      1 O2           3.9750    -0.3680     0.1840 o          1 Q06      -0.929167
      2 P            2.4970    -0.5640     0.0940 p5         1 Q06       1.273500
      3 O            2.1340    -0.9520    -1.3010 o          1 Q06      -0.929167
      4 O1           2.0790    -1.6260     1.0550 o          1 Q06      -0.929167
      5 C            1.6450     1.1080     0.5500 c3         1 Q06      -0.171500
      6 N            2.3360     2.4180     0.2090 n8         1 Q06      -1.009200
      7 C1           0.1570     1.1890     0.0900 c3         1 Q06      -0.017400
      8 C2          -0.7800     0.1050     0.6820 c3         1 Q06      -0.074400
      9 C3          -2.2840     0.3170     0.3700 c5         1 Q06      -0.052700
     10 C7          -3.2120    -0.7830     0.9440 c5         1 Q06      -0.078900
     11 C6          -4.5830    -0.3950     0.3240 c5         1 Q06      -0.080400
     12 C5          -4.2270     0.2130    -1.0720 c5         1 Q06      -0.080400
     13 C4          -2.6710     0.2080    -1.1280 c5         1 Q06      -0.078900
     14 H4           1.6330     1.0690     1.6470 h1         1 Q06       0.019700
     15 H5           3.3090     2.3690     0.5390 hn         1 Q06       0.374500
     16 H6           2.4470     2.4810    -0.8110 hn         1 Q06       0.374500
     17 H8          -0.2490     2.1690     0.3740 hc         1 Q06      -0.000800
     18 H9          -0.4730    -0.8790     0.3110 hc         1 Q06       0.063200
     19 H10         -0.6420     0.0830     1.7700 hc         1 Q06       0.063200
     20 H11         -2.5580     1.3000     0.7740 hc         1 Q06       0.016700
     21 H12         -2.8980    -1.7860     0.6290 hc         1 Q06       0.046450
     22 H13         -3.2390    -0.7800     2.0400 hc         1 Q06       0.046450
     23 H14         -5.2500    -1.2600     0.2400 hc         1 Q06       0.015200
     24 H15         -5.0980     0.3460     0.9470 hc         1 Q06       0.015200
     25 H16         -4.6590    -0.3660    -1.8950 hc         1 Q06       0.015200
     26 H17         -4.6210     1.2320    -1.1590 hc         1 Q06       0.015200
     27 H18         -2.2810     1.0390    -1.7260 hc         1 Q06       0.046450
     28 H19         -2.2920    -0.7180    -1.5760 hc         1 Q06       0.046450
     29 H2           0.1140     1.1430    -1.0050 hc         1 Q06      -0.000800
@<TRIPOS>BOND
     1     1     2 1   
     2     2     3 1   
     3     2     4 1   
     4     2     5 1   
     5     5     6 1   
     6     5     7 1   
     7     5    14 1   
     8     6    15 1   
     9     6    16 1   
    10     7     8 1   
    11     7    17 1   
    12     7    29 1   
    13     8     9 1   
    14     8    18 1   
    15     8    19 1   
    16     9    10 1   
    17     9    13 1   
    18     9    20 1   
    19    10    11 1   
    20    10    21 1   
    21    10    22 1   
    22    11    12 1   
    23    11    23 1   
    24    11    24 1   
    25    12    13 1   
    26    12    25 1   
    27    12    26 1   
    28    13    27 1   
    29    13    28 1   
@<TRIPOS>SUBSTRUCTURE
     1 Q06         1 TEMP              0 ****  ****    0 ROOT
