@<TRIPOS>MOLECULE
Q07
   25    24     1     0     0
SMALL
No Charge or Current Charge


@<TRIPOS>ATOM
      1 O2          -2.4040    -1.3130    -0.8320 o          1 Q07      -0.927833
      2 P           -2.0810    -0.1060    -0.0130 p5         1 Q07       1.296500
      3 O           -3.1020     0.9500    -0.2920 o          1 Q07      -0.927833
      4 O1          -2.1180    -0.4410     1.4420 o          1 Q07      -0.927833
      5 C5          -0.3230     0.5690    -0.4850 c3         1 Q07      -0.138500
      6 N           -0.0780     2.0660    -0.3810 n8         1 Q07      -0.959200
      7 C3           0.8870    -0.2150     0.1670 c3         1 Q07      -0.054700
      8 C4           0.7740    -1.7530    -0.0400 c3         1 Q07      -0.091100
      9 C2           2.2850     0.3030    -0.3260 c3         1 Q07      -0.076400
     10 C1           3.5230    -0.3650     0.3280 c3         1 Q07      -0.077400
     11 C            4.8500     0.3190    -0.0560 c3         1 Q07      -0.085100
     12 H3          -0.2770     0.3480    -1.5590 h1         1 Q07       0.020700
     13 H4          -0.2520     2.3700     0.5840 hn         1 Q07       0.348000
     14 H5           0.9170     2.2540    -0.5330 hn         1 Q07       0.348000
     15 H7           0.8400    -0.0380     1.2500 hc         1 Q07       0.057700
     16 H8           1.5870    -2.2880     0.4620 hc         1 Q07       0.024033
     17 H9          -0.1490    -2.1560     0.3870 hc         1 Q07       0.024033
     18 H10          0.8030    -2.0060    -1.1060 hc         1 Q07       0.024033
     19 H11          2.3520     0.1810    -1.4150 hc         1 Q07       0.014700
     20 H12          2.3760     1.3770    -0.1270 hc         1 Q07       0.014700
     21 H13          3.4150    -0.3450     1.4190 hc         1 Q07       0.030700
     22 H14          3.5870    -1.4160     0.0260 hc         1 Q07       0.030700
     23 H15          4.9990     0.2920    -1.1420 hc         1 Q07       0.009700
     24 H16          4.8570     1.3660     0.2700 hc         1 Q07       0.009700
     25 H17          5.6950    -0.1930     0.4190 hc         1 Q07       0.009700
@<TRIPOS>BOND
     1     1     2 1   
     2     2     3 1   
     3     2     4 1   
     4     2     5 1   
     5     5     6 1   
     6     5     7 1   
     7     5    12 1   
     8     6    13 1   
     9     6    14 1   
    10     7     8 1   
    11     7     9 1   
    12     7    15 1   
    13     8    16 1   
    14     8    17 1   
    15     8    18 1   
    16     9    10 1   
    17     9    19 1   
    18     9    20 1   
    19    10    11 1   
    20    10    21 1   
    21    10    22 1   
    22    11    23 1   
    23    11    24 1   
    24    11    25 1   
@<TRIPOS>SUBSTRUCTURE
     1 Q07         1 TEMP              0 ****  ****    0 ROOT
