@<TRIPOS>MOLECULE
Q07
   25    24     1     0     0
SMALL
abcg2


@<TRIPOS>ATOM
      1 O2          -2.1430    -1.4450     0.2570 o          1 Q07      -0.927833
      2 P           -1.9510     0.0810     0.3010 p5         1 Q07       1.296500
      3 O           -3.0150     0.8290    -0.5110 o          1 Q07      -0.927833
      4 O1          -1.7640     0.6280     1.7280 o          1 Q07      -0.927833
      5 C5          -0.3070     0.4810    -0.5300 c3         1 Q07      -0.138500
      6 N           -0.1700     1.9350    -0.4550 n8         1 Q07      -0.959200
      7 C3           0.8830    -0.3240     0.0510 c3         1 Q07      -0.054700
      8 C4           0.8510    -1.7660    -0.4520 c3         1 Q07      -0.091100
      9 C2           2.2460     0.3090    -0.2520 c3         1 Q07      -0.076400
     10 C1           3.4410    -0.4420     0.3260 c3         1 Q07      -0.077400
     11 C            4.7500     0.3150     0.1360 c3         1 Q07      -0.085100
     12 H3          -0.3830     0.2190    -1.5970 h1         1 Q07       0.020700
     13 H4          -0.2270     2.2090     0.5190 hn         1 Q07       0.348000
     14 H5           0.7400     2.2340    -0.7820 hn         1 Q07       0.348000
     15 H7           0.7670    -0.3350     1.1440 hc         1 Q07       0.057700
     16 H8           1.5560    -2.4060     0.0810 hc         1 Q07       0.024033
     17 H9          -0.1480    -2.1760    -0.3260 hc         1 Q07       0.024033
     18 H10          1.1130    -1.8090    -1.5140 hc         1 Q07       0.024033
     19 H11          2.3700     0.4030    -1.3390 hc         1 Q07       0.014700
     20 H12          2.2820     1.3270     0.1460 hc         1 Q07       0.014700
     21 H13          3.2720    -0.6180     1.3930 hc         1 Q07       0.030700
     22 H14          3.5310    -1.4300    -0.1320 hc         1 Q07       0.030700
     23 H15          4.9550     0.4880    -0.9220 hc         1 Q07       0.009700
     24 H16          4.7170     1.2900     0.6280 hc         1 Q07       0.009700
     25 H17          5.5970    -0.2350     0.5490 hc         1 Q07       0.009700
@<TRIPOS>BOND
     1     1     2 1   
     2     2     3 1   
     3     2     4 1   
     4     2     5 1   
     5     5     6 1   
     6     5     7 1   
     7     5    12 1   
     8     6    13 1   
     9     6    14 1   
    10     7     8 1   
    11     7     9 1   
    12     7    15 1   
    13     8    16 1   
    14     8    17 1   
    15     8    18 1   
    16     9    10 1   
    17     9    19 1   
    18     9    20 1   
    19    10    11 1   
    20    10    21 1   
    21    10    22 1   
    22    11    23 1   
    23    11    24 1   
    24    11    25 1   
@<TRIPOS>SUBSTRUCTURE
     1 Q07         1 TEMP              0 ****  ****    0 ROOT
