@<TRIPOS>MOLECULE
Q08
   31    30     1     0     0
SMALL
No Charge or Current Charge


@<TRIPOS>ATOM
      1 O2           1.1620     1.9730    -0.8320 o          1 Q08      -0.928167
      2 P           -0.0680     1.8780     0.0090 p5         1 Q08       1.290500
      3 O           -0.1170     3.0620     0.9210 o          1 Q08      -0.928167
      4 O1          -1.2810     1.8920    -0.8630 o          1 Q08      -0.928167
      5 C7          -0.0290     0.2820     1.1110 c3         1 Q08      -0.145500
      6 N           -0.9790     0.1530     2.2910 n8         1 Q08      -0.971200
      7 C3           0.0920    -1.0980     0.3460 c3         1 Q08       0.014300
      8 C4          -1.0920    -1.4430    -0.6160 c3         1 Q08      -0.064400
      9 C5          -2.5030    -1.5150     0.0180 c3         1 Q08      -0.065400
     10 C6          -3.5790    -2.0270    -0.9610 c3         1 Q08      -0.077100
     11 C2           1.4430    -1.3040    -0.4090 c3         1 Q08      -0.064400
     12 C1           2.7220    -1.2150     0.4620 c3         1 Q08      -0.065400
     13 C            4.0000    -1.6130    -0.3030 c3         1 Q08      -0.077100
     14 H3           0.9300     0.4270     1.6200 h1         1 Q08      -0.011300
     15 H4          -0.6760    -0.6190     2.8930 hn         1 Q08       0.352000
     16 H5          -0.8940     0.9890     2.8810 hn         1 Q08       0.352000
     17 H7           0.0830    -1.8810     1.1170 hc         1 Q08      -0.030300
     18 H8          -1.1070    -0.7330    -1.4500 hc         1 Q08       0.034950
     19 H9          -0.8890    -2.4230    -1.0660 hc         1 Q08       0.034950
     20 H10         -2.4770    -2.1750     0.8940 hc         1 Q08       0.042200
     21 H11         -2.8020    -0.5200     0.3670 hc         1 Q08       0.042200
     22 H12         -4.5590    -2.0520    -0.4710 hc         1 Q08       0.006367
     23 H13         -3.6490    -1.3720    -1.8370 hc         1 Q08       0.006367
     24 H14         -3.3410    -3.0410    -1.3030 hc         1 Q08       0.006367
     25 H15          1.4300    -2.3010    -0.8670 hc         1 Q08       0.034950
     26 H16          1.5190    -0.5980    -1.2430 hc         1 Q08       0.034950
     27 H17          2.8520    -0.1920     0.8340 hc         1 Q08       0.042200
     28 H18          2.6140    -1.8670     1.3370 hc         1 Q08       0.042200
     29 H19          4.8770    -1.5280     0.3500 hc         1 Q08       0.006367
     30 H20          3.9350    -2.6500    -0.6550 hc         1 Q08       0.006367
     31 H21          4.1520    -0.9600    -1.1700 hc         1 Q08       0.006367
@<TRIPOS>BOND
     1     1     2 1   
     2     2     3 1   
     3     2     4 1   
     4     2     5 1   
     5     5     6 1   
     6     5     7 1   
     7     5    14 1   
     8     6    15 1   
     9     6    16 1   
    10     7     8 1   
    11     7    11 1   
    12     7    17 1   
    13     8     9 1   
    14     8    18 1   
    15     8    19 1   
    16     9    10 1   
    17     9    20 1   
    18     9    21 1   
    19    10    22 1   
    20    10    23 1   
    21    10    24 1   
    22    11    12 1   
    23    11    25 1   
    24    11    26 1   
    25    12    13 1   
    26    12    27 1   
    27    12    28 1   
    28    13    29 1   
    29    13    30 1   
    30    13    31 1   
@<TRIPOS>SUBSTRUCTURE
     1 Q08         1 TEMP              0 ****  ****    0 ROOT
