@<TRIPOS>MOLECULE
Q08
   31    30     1     0     0
SMALL
abcg2


@<TRIPOS>ATOM
      1 O2           0.7570     1.8430    -1.0750 o          1 Q08      -0.928167
      2 P           -0.3540     1.7820    -0.0120 p5         1 Q08       1.290500
      3 O           -0.2690     2.9320     1.0130 o          1 Q08      -0.928167
      4 O1          -1.7600     1.6270    -0.6080 o          1 Q08      -0.928167
      5 C7           0.0420     0.2860     1.0500 c3         1 Q08      -0.145500
      6 N           -0.8860     0.2430     2.1860 n8         1 Q08      -0.971200
      7 C3           0.1310    -1.0940     0.3760 c3         1 Q08       0.014300
      8 C4          -1.0200    -1.4480    -0.5710 c3         1 Q08      -0.064400
      9 C5          -2.4130    -1.4850     0.0370 c3         1 Q08      -0.065400
     10 C6          -3.4650    -1.9170    -0.9750 c3         1 Q08      -0.077100
     11 C2           1.4620    -1.2710    -0.3680 c3         1 Q08      -0.064400
     12 C1           2.6950    -1.4020     0.5210 c3         1 Q08      -0.065400
     13 C            3.9650    -1.6580    -0.2790 c3         1 Q08      -0.077100
     14 H3           1.0600     0.5090     1.4140 h1         1 Q08      -0.011300
     15 H4          -0.4940    -0.3440     2.9150 hn         1 Q08       0.352000
     16 H5          -0.9280     1.1770     2.5760 hn         1 Q08       0.352000
     17 H7           0.1200    -1.8440     1.1860 hc         1 Q08      -0.030300
     18 H8          -1.0230    -0.7420    -1.4050 hc         1 Q08       0.034950
     19 H9          -0.8040    -2.4340    -1.0030 hc         1 Q08       0.034950
     20 H10         -2.4220    -2.1690     0.8930 hc         1 Q08       0.042200
     21 H11         -2.6490    -0.4960     0.4220 hc         1 Q08       0.042200
     22 H12         -4.4610    -1.9690    -0.5300 hc         1 Q08       0.006367
     23 H13         -3.5160    -1.2120    -1.8080 hc         1 Q08       0.006367
     24 H14         -3.2430    -2.9020    -1.3950 hc         1 Q08       0.006367
     25 H15          1.4030    -2.1720    -0.9900 hc         1 Q08       0.034950
     26 H16          1.5870    -0.4250    -1.0480 hc         1 Q08       0.034950
     27 H17          2.8260    -0.4980     1.1210 hc         1 Q08       0.042200
     28 H18          2.5420    -2.2170     1.2360 hc         1 Q08       0.042200
     29 H19          4.8430    -1.7310     0.3650 hc         1 Q08       0.006367
     30 H20          3.8940    -2.5880    -0.8470 hc         1 Q08       0.006367
     31 H21          4.1480    -0.8530    -0.9940 hc         1 Q08       0.006367
@<TRIPOS>BOND
     1     1     2 1   
     2     2     3 1   
     3     2     4 1   
     4     2     5 1   
     5     5     6 1   
     6     5     7 1   
     7     5    14 1   
     8     6    15 1   
     9     6    16 1   
    10     7     8 1   
    11     7    11 1   
    12     7    17 1   
    13     8     9 1   
    14     8    18 1   
    15     8    19 1   
    16     9    10 1   
    17     9    20 1   
    18     9    21 1   
    19    10    22 1   
    20    10    23 1   
    21    10    24 1   
    22    11    12 1   
    23    11    25 1   
    24    11    26 1   
    25    12    13 1   
    26    12    27 1   
    27    12    28 1   
    28    13    29 1   
    29    13    30 1   
    30    13    31 1   
@<TRIPOS>SUBSTRUCTURE
     1 Q08         1 TEMP              0 ****  ****    0 ROOT
