@<TRIPOS>MOLECULE
Q09
   65    68     1     0     0
SMALL
abcg2


@<TRIPOS>ATOM
      1 C10        131.8980   133.6680   112.3290 cp         1 Q09       0.431500
      2 C13        133.0040   134.2340   108.9570 ca         1 Q09      -0.087000
      3 C15        131.1920   135.0950   107.6140 ca         1 Q09      -0.109000
      4 C17        130.7910   134.5820   109.9450 ca         1 Q09      -0.056000
      5 C24        126.5700   137.5660   111.2290 c3         1 Q09      -0.097400
      6 C28        123.3330   135.6110   109.0580 c6         1 Q09      -0.075400
      7 C01        135.8180   131.2280   118.7570 c3         1 Q09      -0.095100
      8 C02        135.5670   131.8270   117.3920 c3         1 Q09       0.164600
      9 C04        133.6760   132.2480   115.9690 ca         1 Q09       0.158100
     10 C05        134.4700   132.7980   114.9590 ca         1 Q09      -0.181000
     11 C06        133.8770   133.2490   113.7880 ca         1 Q09      -0.042000
     12 C07        132.4970   133.1780   113.5880 cp         1 Q09      -0.197500
     13 C08        131.7160   132.6250   114.6130 ca         1 Q09      -0.042000
     14 C09        132.2920   132.1630   115.7810 ca         1 Q09      -0.181000
     15 C12        132.1510   134.1740   110.0840 ca         1 Q09       0.274000
     16 C14        132.5350   134.6830   107.7490 ca         1 Q09      -0.099000
     17 C16        130.3380   135.0460   108.6880 ca         1 Q09      -0.081000
     18 C18        129.9850   134.5250   111.1170 ca         1 Q09      -0.091600
     19 C19        130.5380   134.0840   112.2880 ca         1 Q09      -0.138000
     20 C23        126.7910   136.3210   112.0860 c3         1 Q09       0.103000
     21 C25        125.1280   138.0690   111.2910 c3         1 Q09       0.171800
     22 C27        124.2550   136.7460   109.4790 c6         1 Q09       0.165800
     23 C29        121.8850   135.9500   109.3910 c6         1 Q09      -0.074400
     24 C30        121.7730   136.3570   110.8560 c6         1 Q09      -0.073400
     25 C31        122.7530   137.4700   111.2430 c6         1 Q09       0.183500
     26 C32        122.5860   137.7900   112.7280 c3         1 Q09      -0.091100
     27 N11        132.6670   133.7210   111.2570 nb         1 Q09      -0.665000
     28 N22        128.1510   135.8140   111.9900 ns         1 Q09      -0.500900
     29 N26        124.1310   137.0690   110.9020 n3         1 Q09      -0.726600
     30 O21        127.7610   134.3920   110.2600 o          1 Q09      -0.593100
     31 H1         134.0320   133.9180   109.0800 ha         1 Q09       0.130000
     32 H2         130.8340   135.4510   106.6560 ha         1 Q09       0.117000
     33 H3         127.2200   138.3700   111.5850 hc         1 Q09       0.044700
     34 H4         126.8760   137.3500   110.2040 hc         1 Q09       0.044700
     35 H5         123.4570   135.4270   107.9880 hc         1 Q09       0.049700
     36 H6         123.6300   134.6970   109.5830 hc         1 Q09       0.049700
     37 H7         136.8880   131.2500   118.9730 hc         1 Q09       0.048700
     38 H8         135.2980   131.7930   119.5310 hc         1 Q09       0.048700
     39 H9         135.4810   130.1910   118.7930 hc         1 Q09       0.048700
     40 H10        136.0890   131.2670   116.6120 h1         1 Q09       0.036700
     41 H11        135.8990   132.8680   117.3520 h1         1 Q09       0.036700
     42 H12        135.5400   132.8820   115.0770 ha         1 Q09       0.124000
     43 H13        134.4990   133.6760   113.0130 ha         1 Q09       0.123000
     44 H14        130.6450   132.5280   114.4930 ha         1 Q09       0.123000
     45 H15        131.6850   131.7240   116.5620 ha         1 Q09       0.124000
     46 H16        133.1960   134.7250   106.8920 ha         1 Q09       0.117000
     47 H17        129.3090   135.3570   108.5800 ha         1 Q09       0.132000
     48 H18        129.9400   134.0540   113.1870 ha         1 Q09       0.127000
     49 H19        126.5870   136.5410   113.1360 h1         1 Q09       0.068200
     50 H20        126.1150   135.5290   111.7740 h1         1 Q09       0.068200
     51 H21        124.9290   138.3710   112.3170 h1         1 Q09       0.031200
     52 H22        125.0380   138.9770   110.6680 h1         1 Q09       0.031200
     53 H23        125.2870   136.4650   109.2750 h1         1 Q09       0.032700
     54 H24        124.0390   137.6400   108.8640 h1         1 Q09       0.032700
     55 H25        121.5510   136.7780   108.7560 hc         1 Q09       0.038200
     56 H26        121.2280   135.1020   109.1810 hc         1 Q09       0.038200
     57 H27        120.7600   136.6970   111.0810 hc         1 Q09       0.045200
     58 H28        121.9720   135.4890   111.4950 hc         1 Q09       0.045200
     59 H29        122.4840   138.3740   110.6630 h1         1 Q09       0.017700
     60 H30        121.5240   137.8880   112.9560 hc         1 Q09       0.037700
     61 H31        122.9940   136.9800   113.3380 hc         1 Q09       0.037700
     62 H32        123.0700   138.7200   113.0220 hc         1 Q09       0.037700
     63 H33        128.8660   136.2560   112.5470 hn         1 Q09       0.314500
     64 C20        128.5310   134.9090   111.0730 c          1 Q09       0.601700
     65 O03        134.1520   131.7740   117.1450 os         1 Q09      -0.356100
@<TRIPOS>BOND
     1     1    12 1   
     2     1    19 ar  
     3     1    27 ar  
     4     2    15 ar  
     5     2    16 ar  
     6     2    31 1   
     7     3    16 ar  
     8     3    17 ar  
     9     3    32 1   
    10     4    15 ar  
    11     4    17 ar  
    12     4    18 ar  
    13     5    20 1   
    14     5    21 1   
    15     5    33 1   
    16     5    34 1   
    17     6    22 1   
    18     6    23 1   
    19     6    35 1   
    20     6    36 1   
    21     7     8 1   
    22     7    37 1   
    23     7    38 1   
    24     7    39 1   
    25     8    40 1   
    26     8    41 1   
    27     8    65 1   
    28     9    10 ar  
    29     9    14 ar  
    30     9    65 1   
    31    10    11 ar  
    32    10    42 1   
    33    11    12 ar  
    34    11    43 1   
    35    12    13 ar  
    36    13    14 ar  
    37    13    44 1   
    38    14    45 1   
    39    15    27 ar  
    40    16    46 1   
    41    17    47 1   
    42    18    19 ar  
    43    18    64 1   
    44    19    48 1   
    45    20    28 1   
    46    20    49 1   
    47    20    50 1   
    48    21    29 1   
    49    21    51 1   
    50    21    52 1   
    51    22    29 1   
    52    22    53 1   
    53    22    54 1   
    54    23    24 1   
    55    23    55 1   
    56    23    56 1   
    57    24    25 1   
    58    24    57 1   
    59    24    58 1   
    60    25    26 1   
    61    25    29 1   
    62    25    59 1   
    63    26    60 1   
    64    26    61 1   
    65    26    62 1   
    66    28    63 1   
    67    28    64 1   
    68    30    64 2   
@<TRIPOS>SUBSTRUCTURE
     1 Q09         1 TEMP              0 ****  ****    0 ROOT
