@<TRIPOS>MOLECULE
Q09
   65    68     1     0     0
SMALL
No Charge or Current Charge


@<TRIPOS>ATOM
      1 C10        131.9930   133.7190   112.1920 cp         1 Q09       0.431500
      2 C13        133.3080   134.1570   108.8580 ca         1 Q09      -0.087000
      3 C15        131.6250   135.0690   107.3730 ca         1 Q09      -0.109000
      4 C17        131.0620   134.6030   109.7150 ca         1 Q09      -0.056000
      5 C24        126.5470   137.4090   111.2520 c3         1 Q09      -0.097400
      6 C28        123.0360   135.5460   109.2460 c6         1 Q09      -0.075400
      7 C01        135.6410   131.2800   118.9440 c3         1 Q09      -0.095100
      8 C02        135.4990   131.8800   117.5360 c3         1 Q09       0.164600
      9 C04        133.6410   132.2940   115.9680 ca         1 Q09       0.158100
     10 C05        134.4870   132.8500   114.9880 ca         1 Q09      -0.181000
     11 C06        133.9530   133.3070   113.7710 ca         1 Q09      -0.042000
     12 C07        132.5600   133.2270   113.4970 cp         1 Q09      -0.197500
     13 C08        131.7290   132.6560   114.4980 ca         1 Q09      -0.042000
     14 C09        132.2660   132.2000   115.7140 ca         1 Q09      -0.181000
     15 C12        132.3970   134.1540   109.9310 ca         1 Q09       0.274000
     16 C14        132.9290   134.6050   107.5840 ca         1 Q09      -0.099000
     17 C16        130.7000   135.0740   108.4280 ca         1 Q09      -0.081000
     18 C18        130.1530   134.5960   110.8130 ca         1 Q09      -0.091600
     19 C19        130.6550   134.1540   112.0590 ca         1 Q09      -0.138000
     20 C23        126.7790   136.0620   111.9680 c3         1 Q09       0.103000
     21 C25        125.1120   137.9580   111.4330 c3         1 Q09       0.171800
     22 C27        124.0970   136.6060   109.6180 c6         1 Q09       0.165800
     23 C29        121.6180   136.0630   109.5530 c6         1 Q09      -0.074400
     24 C30        121.5370   136.5080   111.0270 c6         1 Q09      -0.073400
     25 C31        122.6380   137.5520   111.3790 c6         1 Q09       0.183500
     26 C32        122.4660   137.9710   112.8690 c3         1 Q09      -0.091100
     27 N11        132.8320   133.7310   111.1370 nb         1 Q09      -0.665000
     28 N22        128.1640   135.5980   111.8370 ns         1 Q09      -0.500900
     29 N26        124.0100   137.0250   111.0530 n3         1 Q09      -0.726600
     30 O21        127.9940   134.7650   109.7340 o          1 Q09      -0.593100
     31 H1         134.3240   133.8090   109.0200 ha         1 Q09       0.130000
     32 H2         131.3310   135.4320   106.3900 ha         1 Q09       0.117000
     33 H3         127.2500   138.1480   111.6530 hc         1 Q09       0.044700
     34 H4         126.7810   137.3120   110.1860 hc         1 Q09       0.044700
     35 H5         123.1210   135.2910   108.1820 hc         1 Q09       0.049700
     36 H6         123.2270   134.6220   109.8080 hc         1 Q09       0.049700
     37 H7         136.6910   131.2980   119.2590 hc         1 Q09       0.048700
     38 H8         135.0540   131.8560   119.6700 hc         1 Q09       0.048700
     39 H9         135.2950   130.2400   118.9580 hc         1 Q09       0.048700
     40 H10        136.1040   131.2970   116.8280 h1         1 Q09       0.036700
     41 H11        135.8630   132.9160   117.5420 h1         1 Q09       0.036700
     42 H12        135.5580   132.9380   115.1510 ha         1 Q09       0.124000
     43 H13        134.6300   133.7370   113.0350 ha         1 Q09       0.123000
     44 H14        130.6600   132.5460   114.3340 ha         1 Q09       0.123000
     45 H15        131.6110   131.7650   116.4640 ha         1 Q09       0.124000
     46 H16        133.6480   134.6020   106.7670 ha         1 Q09       0.117000
     47 H17        129.7100   135.4660   108.2210 ha         1 Q09       0.132000
     48 H18        130.0080   134.1260   112.9280 ha         1 Q09       0.127000
     49 H19        126.5450   136.1720   113.0350 h1         1 Q09       0.068200
     50 H20        126.1050   135.2990   111.5550 h1         1 Q09       0.068200
     51 H21        125.0280   138.2230   112.4940 h1         1 Q09       0.031200
     52 H22        125.0230   138.8920   110.8630 h1         1 Q09       0.031200
     53 H23        125.0800   136.1700   109.3940 h1         1 Q09       0.032700
     54 H24        123.9750   137.4800   108.9610 h1         1 Q09       0.032700
     55 H25        121.3770   136.9080   108.8930 hc         1 Q09       0.038200
     56 H26        120.8760   135.2790   109.3510 hc         1 Q09       0.038200
     57 H27        120.5420   136.9300   111.2220 hc         1 Q09       0.045200
     58 H28        121.6370   135.6300   111.6810 hc         1 Q09       0.045200
     59 H29        122.4470   138.4500   110.7730 h1         1 Q09       0.017700
     60 H30        121.4200   138.2100   113.0940 hc         1 Q09       0.037700
     61 H31        122.7760   137.1670   113.5480 hc         1 Q09       0.037700
     62 H32        123.0460   138.8680   113.1120 hc         1 Q09       0.037700
     63 H33        128.8040   135.7700   112.6030 hn         1 Q09       0.314500
     64 C20        128.6940   135.0060   110.7080 c          1 Q09       0.601700
     65 O03        134.1070   131.8290   117.1800 os         1 Q09      -0.356100
@<TRIPOS>BOND
     1     1    12 1   
     2     1    19 ar  
     3     1    27 ar  
     4     2    15 ar  
     5     2    16 ar  
     6     2    31 1   
     7     3    16 ar  
     8     3    17 ar  
     9     3    32 1   
    10     4    15 ar  
    11     4    17 ar  
    12     4    18 ar  
    13     5    20 1   
    14     5    21 1   
    15     5    33 1   
    16     5    34 1   
    17     6    22 1   
    18     6    23 1   
    19     6    35 1   
    20     6    36 1   
    21     7     8 1   
    22     7    37 1   
    23     7    38 1   
    24     7    39 1   
    25     8    40 1   
    26     8    41 1   
    27     8    65 1   
    28     9    10 ar  
    29     9    14 ar  
    30     9    65 1   
    31    10    11 ar  
    32    10    42 1   
    33    11    12 ar  
    34    11    43 1   
    35    12    13 ar  
    36    13    14 ar  
    37    13    44 1   
    38    14    45 1   
    39    15    27 ar  
    40    16    46 1   
    41    17    47 1   
    42    18    19 ar  
    43    18    64 1   
    44    19    48 1   
    45    20    28 1   
    46    20    49 1   
    47    20    50 1   
    48    21    29 1   
    49    21    51 1   
    50    21    52 1   
    51    22    29 1   
    52    22    53 1   
    53    22    54 1   
    54    23    24 1   
    55    23    55 1   
    56    23    56 1   
    57    24    25 1   
    58    24    57 1   
    59    24    58 1   
    60    25    26 1   
    61    25    29 1   
    62    25    59 1   
    63    26    60 1   
    64    26    61 1   
    65    26    62 1   
    66    28    63 1   
    67    28    64 1   
    68    30    64 2   
@<TRIPOS>SUBSTRUCTURE
     1 Q09         1 TEMP              0 ****  ****    0 ROOT
