@<TRIPOS>MOLECULE
Q0A
   63    66     1     0     0
SMALL
No Charge or Current Charge


@<TRIPOS>ATOM
      1 C1          -0.2850    -2.7310     0.8380 ca         1 Q0A      -0.195600
      2 C2          -0.4640    -2.7930    -0.5670 ca         1 Q0A       0.296000
      3 C3           2.6800    -1.6240    -1.0930 c6         1 Q0A       0.195800
      4 O1           0.7030    -3.6200     2.7840 o          1 Q0A      -0.691000
      5 C4           3.5530    -0.3350    -1.0060 c6         1 Q0A       0.168300
      6 C5           3.5540     2.1480    -1.1410 c3         1 Q0A       0.223100
      7 C6           4.1490     2.3580     0.2480 ca         1 Q0A      -0.100300
      8 C7           5.5460     2.3430     0.4370 ca         1 Q0A      -0.072000
      9 C8           6.0870     2.5350     1.7220 ca         1 Q0A      -0.155500
     10 C9           5.2340     2.7420     2.8160 ca         1 Q0A       0.162000
     11 C10          3.8430     2.7580     2.6370 ca         1 Q0A      -0.155500
     12 C11          3.3000     2.5670     1.3540 ca         1 Q0A      -0.072000
     13 S1          -3.1720    -0.0820     2.0180 ss         1 Q0A      -0.239000
     14 C12          2.0360     0.7990    -2.5540 c6         1 Q0A       0.168300
     15 C13          1.1620    -0.4920    -2.6500 c6         1 Q0A       0.195800
     16 C14         -1.5070    -2.0650    -1.1690 ca         1 Q0A      -0.174000
     17 C15         -2.3420    -1.2320    -0.4110 ca         1 Q0A      -0.080000
     18 O2           2.2120    -4.2320    -2.8540 o          1 Q0A      -0.569000
     19 N1           1.9570    -1.7290    -2.3930 n3         1 Q0A      -0.761500
     20 C16         -2.1500    -1.1300     0.9770 ca         1 Q0A      -0.153000
     21 N2           2.7550     0.9070    -1.2490 n3         1 Q0A      -0.724600
     22 C17         -4.1340     0.9890     0.8560 c3         1 Q0A       0.057600
     23 C18         -4.9730     2.0170     1.6360 c3         1 Q0A      -0.023100
     24 C19         -5.7750     2.9180     0.7060 ca         1 Q0A      -0.072300
     25 C20         -5.2100     4.1090     0.2100 ca         1 Q0A      -0.106500
     26 C21         -5.9480     4.9380    -0.6540 ca         1 Q0A      -0.112500
     27 C22         -7.2530     4.5790    -1.0280 ca         1 Q0A      -0.118000
     28 O3           0.1880    -3.0040    -3.7670 o          1 Q0A      -0.569000
     29 S            1.1730    -3.2160    -2.7060 s6         1 Q0A       1.261200
     30 F            5.7550     2.9250     4.0490 f          1 Q0A      -0.188000
     31 N            0.3400    -3.6080    -1.3450 nu         1 Q0A      -0.920100
     32 C25         -1.1360    -1.8850     1.5900 ca         1 Q0A      -0.024000
     33 C            0.7770    -3.5360     1.5670 c          1 Q0A       0.718600
     34 O            1.6690    -4.0720     0.9230 o          1 Q0A      -0.691000
     35 C24         -7.0840     2.5620     0.3260 ca         1 Q0A      -0.106500
     36 C23         -7.8210     3.3910    -0.5380 ca         1 Q0A      -0.112500
     37 H1           3.3350    -2.4950    -0.9400 h1         1 Q0A       0.069700
     38 H2           1.9710    -1.6000    -0.2540 h1         1 Q0A       0.069700
     39 H4           4.0220    -0.3030    -0.0120 h1         1 Q0A       0.035450
     40 H5           4.3660    -0.4120    -1.7430 h1         1 Q0A       0.035450
     41 H6           2.9190     3.0150    -1.3690 h1         1 Q0A       0.032700
     42 H7           4.3610     2.1400    -1.8860 h1         1 Q0A       0.032700
     43 H8           6.2120     2.1800    -0.4080 ha         1 Q0A       0.127000
     44 H9           7.1640     2.5220     1.8690 ha         1 Q0A       0.129000
     45 H10          3.1880     2.9170     3.4900 ha         1 Q0A       0.129000
     46 H11          2.2210     2.5740     1.2150 ha         1 Q0A       0.127000
     47 H12          2.7590     0.7920    -3.3830 h1         1 Q0A       0.035450
     48 H13          1.3860     1.6730    -2.7030 h1         1 Q0A       0.035450
     49 H14          0.3440    -0.3990    -1.9230 h1         1 Q0A       0.069700
     50 H15          0.7060    -0.5160    -3.6500 h1         1 Q0A       0.069700
     51 H16         -1.6790    -2.1430    -2.2370 ha         1 Q0A       0.134000
     52 H17         -3.1310    -0.6840    -0.9170 ha         1 Q0A       0.102000
     53 H19         -3.4370     1.5130     0.1900 h1         1 Q0A       0.061700
     54 H20         -4.7980     0.3600     0.2500 h1         1 Q0A       0.061700
     55 H21         -5.6450     1.4860     2.3210 hc         1 Q0A       0.057200
     56 H22         -4.3070     2.6200     2.2650 hc         1 Q0A       0.057200
     57 H23         -4.1990     4.3940     0.4930 ha         1 Q0A       0.114000
     58 H24         -5.5060     5.8570    -1.0330 ha         1 Q0A       0.107000
     59 H25         -7.8240     5.2200    -1.6970 ha         1 Q0A       0.105000
     60 H26          1.0840    -4.0320    -0.7940 hn         1 Q0A       0.573000
     61 H27         -1.0120    -1.8060     2.6680 ha         1 Q0A       0.146000
     62 H28         -7.5300     1.6430     0.6980 ha         1 Q0A       0.114000
     63 H29         -8.8320     3.1110    -0.8280 ha         1 Q0A       0.107000
@<TRIPOS>BOND
     1     1     2 ar  
     2     1    32 ar  
     3     1    33 1   
     4     2    16 ar  
     5     2    31 1   
     6     3     5 1   
     7     3    19 1   
     8     3    37 1   
     9     3    38 1   
    10     4    33 1   
    11     5    21 1   
    12     5    39 1   
    13     5    40 1   
    14     6     7 1   
    15     6    21 1   
    16     6    41 1   
    17     6    42 1   
    18     7     8 ar  
    19     7    12 ar  
    20     8     9 ar  
    21     8    43 1   
    22     9    10 ar  
    23     9    44 1   
    24    10    11 ar  
    25    10    30 1   
    26    11    12 ar  
    27    11    45 1   
    28    12    46 1   
    29    13    20 1   
    30    13    22 1   
    31    14    15 1   
    32    14    21 1   
    33    14    47 1   
    34    14    48 1   
    35    15    19 1   
    36    15    49 1   
    37    15    50 1   
    38    16    17 ar  
    39    16    51 1   
    40    17    20 ar  
    41    17    52 1   
    42    18    29 2   
    43    19    29 1   
    44    20    32 ar  
    45    22    23 1   
    46    22    53 1   
    47    22    54 1   
    48    23    24 1   
    49    23    55 1   
    50    23    56 1   
    51    24    25 ar  
    52    24    35 ar  
    53    25    26 ar  
    54    25    57 1   
    55    26    27 ar  
    56    26    58 1   
    57    27    36 ar  
    58    27    59 1   
    59    28    29 2   
    60    29    31 1   
    61    31    60 1   
    62    32    61 1   
    63    33    34 1   
    64    35    36 ar  
    65    35    62 1   
    66    36    63 1   
@<TRIPOS>SUBSTRUCTURE
     1 Q0A         1 TEMP              0 ****  ****    0 ROOT
