@<TRIPOS>MOLECULE
Q0A
   63    66     1     0     0
SMALL
bcc


@<TRIPOS>ATOM
      1 C1          -0.4930    -2.8800     0.9110 ca         1 Q0A      -0.195600
      2 C2          -0.5780    -3.1400    -0.4670 ca         1 Q0A       0.157600
      3 C3           2.7140    -1.4460    -1.0760 c6         1 Q0A       0.195800
      4 O1           0.6980    -2.9500     2.9520 o          1 Q0A      -0.796300
      5 C4           3.4050    -0.1080    -1.2420 c6         1 Q0A       0.168300
      6 C5           3.0570     2.2740    -1.2340 c3         1 Q0A       0.223100
      7 C6           3.7340     2.5860     0.0770 ca         1 Q0A      -0.100300
      8 C7           4.9460     3.2660     0.1060 ca         1 Q0A      -0.090000
      9 C8           5.5520     3.6100     1.3080 ca         1 Q0A      -0.173500
     10 C9           4.9270     3.2510     2.4850 ca         1 Q0A       0.126900
     11 C10          3.7270     2.5640     2.4980 ca         1 Q0A      -0.173500
     12 C11          3.1360     2.2370     1.2870 ca         1 Q0A      -0.090000
     13 S1          -4.0060    -1.0310     1.6810 ss         1 Q0A      -0.318000
     14 C12          1.4890     0.8000    -2.3170 c6         1 Q0A       0.168300
     15 C13          0.7470    -0.5140    -2.1650 c6         1 Q0A       0.195800
     16 C14         -1.7350    -2.7950    -1.1670 ca         1 Q0A      -0.192000
     17 C15         -2.7780    -2.1550    -0.5270 ca         1 Q0A      -0.098000
     18 O2           2.4040    -3.9560    -2.6450 o          1 Q0A      -0.639800
     19 N1           1.7240    -1.6050    -2.1420 n3         1 Q0A      -0.761500
     20 C16         -2.6870    -1.8420     0.8270 ca         1 Q0A      -0.026100
     21 N2           2.4360     0.9680    -1.2350 n3         1 Q0A      -0.724600
     22 C17         -4.1760     0.5060     0.7120 c3         1 Q0A       0.009700
     23 C18         -5.0810     1.4760     1.4660 c3         1 Q0A      -0.023100
     24 C19         -5.2650     2.7430     0.6770 ca         1 Q0A      -0.072300
     25 C20         -4.3670     3.7990     0.8100 ca         1 Q0A      -0.124500
     26 C21         -4.5090     4.9550     0.0530 ca         1 Q0A      -0.130500
     27 C22         -5.5540     5.0690    -0.8540 ca         1 Q0A      -0.136000
     28 O3           0.2320    -3.0590    -3.5120 o          1 Q0A      -0.639800
     29 S            1.2150    -3.1480    -2.4490 s6         1 Q0A       1.402800
     30 F            5.5050     3.5730     3.6560 f          1 Q0A      -0.152900
     31 N            0.5000    -3.7900    -1.1010 nu         1 Q0A      -0.726500
     32 C25         -1.5520    -2.2210     1.5280 ca         1 Q0A      -0.042000
     33 C            0.7050    -3.2820     1.7630 c          1 Q0A       0.929200
     34 O            1.6190    -3.9370     1.1890 o          1 Q0A      -0.796300
     35 C24         -6.3090     2.8680    -0.2380 ca         1 Q0A      -0.124500
     36 C23         -6.4550     4.0210    -0.9970 ca         1 Q0A      -0.130500
     37 H1           3.4570    -2.2390    -1.1360 h1         1 Q0A       0.069700
     38 H2           2.2420    -1.4940    -0.0890 h1         1 Q0A       0.069700
     39 H4           4.1000     0.0190    -0.4100 h1         1 Q0A       0.035450
     40 H5           4.0010    -0.1140    -2.1700 h1         1 Q0A       0.035450
     41 H6           2.2720     3.0160    -1.4070 h1         1 Q0A       0.032700
     42 H7           3.7820     2.3970    -2.0560 h1         1 Q0A       0.032700
     43 H8           5.4330     3.5330    -0.8240 ha         1 Q0A       0.145000
     44 H9           6.4950     4.1400     1.3250 ha         1 Q0A       0.147000
     45 H10          3.2610     2.2920     3.4360 ha         1 Q0A       0.147000
     46 H11          2.2030     1.6890     1.2790 ha         1 Q0A       0.145000
     47 H12          1.9740     0.8310    -3.3070 h1         1 Q0A       0.035450
     48 H13          0.7570     1.6100    -2.2840 h1         1 Q0A       0.035450
     49 H14          0.1530    -0.4910    -1.2440 h1         1 Q0A       0.069700
     50 H15          0.0670    -0.6440    -3.0040 h1         1 Q0A       0.069700
     51 H16         -1.8310    -3.0370    -2.2150 ha         1 Q0A       0.152000
     52 H17         -3.6700    -1.9050    -1.0880 ha         1 Q0A       0.120000
     53 H19         -3.1850     0.9400     0.5670 h1         1 Q0A       0.061700
     54 H20         -4.5980     0.2790    -0.2680 h1         1 Q0A       0.061700
     55 H21         -6.0500     1.0060     1.6520 hc         1 Q0A       0.057200
     56 H22         -4.6410     1.6990     2.4400 hc         1 Q0A       0.057200
     57 H23         -3.5500     3.7200     1.5190 ha         1 Q0A       0.132000
     58 H24         -3.8050     5.7680     0.1760 ha         1 Q0A       0.125000
     59 H25         -5.6680     5.9700    -1.4420 ha         1 Q0A       0.123000
     60 H26          1.1970    -4.0300    -0.3460 hn         1 Q0A       0.517800
     61 H27         -1.4720    -1.9930     2.5830 ha         1 Q0A       0.164000
     62 H28         -7.0180     2.0570    -0.3550 ha         1 Q0A       0.132000
     63 H29         -7.2750     4.1030    -1.6990 ha         1 Q0A       0.125000
@<TRIPOS>BOND
     1     1     2 ar  
     2     1    32 ar  
     3     1    33 1   
     4     2    16 ar  
     5     2    31 1   
     6     3     5 1   
     7     3    19 1   
     8     3    37 1   
     9     3    38 1   
    10     4    33 1   
    11     5    21 1   
    12     5    39 1   
    13     5    40 1   
    14     6     7 1   
    15     6    21 1   
    16     6    41 1   
    17     6    42 1   
    18     7     8 ar  
    19     7    12 ar  
    20     8     9 ar  
    21     8    43 1   
    22     9    10 ar  
    23     9    44 1   
    24    10    11 ar  
    25    10    30 1   
    26    11    12 ar  
    27    11    45 1   
    28    12    46 1   
    29    13    20 1   
    30    13    22 1   
    31    14    15 1   
    32    14    21 1   
    33    14    47 1   
    34    14    48 1   
    35    15    19 1   
    36    15    49 1   
    37    15    50 1   
    38    16    17 ar  
    39    16    51 1   
    40    17    20 ar  
    41    17    52 1   
    42    18    29 2   
    43    19    29 1   
    44    20    32 ar  
    45    22    23 1   
    46    22    53 1   
    47    22    54 1   
    48    23    24 1   
    49    23    55 1   
    50    23    56 1   
    51    24    25 ar  
    52    24    35 ar  
    53    25    26 ar  
    54    25    57 1   
    55    26    27 ar  
    56    26    58 1   
    57    27    36 ar  
    58    27    59 1   
    59    28    29 2   
    60    29    31 1   
    61    31    60 1   
    62    32    61 1   
    63    33    34 1   
    64    35    36 ar  
    65    35    62 1   
    66    36    63 1   
@<TRIPOS>SUBSTRUCTURE
     1 Q0A         1 TEMP              0 ****  ****    0 ROOT
