@<TRIPOS>MOLECULE
Q0B
   52    55     1     0     0
SMALL
No Charge or Current Charge


@<TRIPOS>ATOM
      1 Cl           3.1180    -2.5400     1.9090 cl         1 Q0B      -0.164000
      2 C15          4.0150    -2.3420     0.4010 ca         1 Q0B       0.130000
      3 C16          5.3410    -2.8010     0.3350 ca         1 Q0B      -0.101000
      4 C17          6.0800    -2.6570    -0.8530 ca         1 Q0B      -0.088000
      5 C18          5.4920    -2.0510    -1.9750 ca         1 Q0B      -0.107000
      6 C19          4.1650    -1.5890    -1.9130 ca         1 Q0B      -0.090000
      7 C14          3.4190    -1.7340    -0.7270 ca         1 Q0B      -0.008200
      8 N11          2.1050    -1.2690    -0.6830 na         1 Q0B      -0.178200
      9 C10          1.0010    -2.0690    -1.0020 cc         1 Q0B       0.361900
     10 N21          1.1040    -3.3180    -1.5010 nv         1 Q0B      -0.957000
     11 C12          1.7230    -0.0470    -0.1560 ca         1 Q0B       0.379500
     12 C8           0.3290    -0.0540    -0.1530 ca         1 Q0B       0.422800
     13 N7          -0.4470     0.9610     0.2890 nb         1 Q0B      -0.665000
     14 C5           0.2540     2.0370     0.7480 ca         1 Q0B       0.241000
     15 C6          -0.4490     3.1550     1.2340 ca         1 Q0B      -0.084000
     16 C1           0.2320     4.2850     1.7170 ca         1 Q0B      -0.102000
     17 C2           1.6340     4.3110     1.7200 ca         1 Q0B      -0.112000
     18 C3           2.3590     3.2070     1.2400 ca         1 Q0B      -0.073000
     19 C4           1.7010     2.0630     0.7510 ca         1 Q0B       0.222000
     20 N13          2.4440     1.0120     0.2940 nb         1 Q0B      -0.637000
     21 C9          -0.1080    -1.3230    -0.6900 cd         1 Q0B      -0.487000
     22 C22         -1.4870    -1.7880    -0.8900 c          1 Q0B       0.666300
     23 O23         -1.7750    -2.8760    -1.3680 o          1 Q0B      -0.683100
     24 N24         -2.4380    -0.8910    -0.4990 ns         1 Q0B      -0.495900
     25 C35         -3.8790    -1.1010    -0.5900 c3         1 Q0B       0.110000
     26 C36         -4.6610     0.1150    -0.0610 c3         1 Q0B      -0.099400
     27 C37         -6.1840    -0.0820    -0.1470 c3         1 Q0B       0.164600
     28 O38         -6.8060     1.1050     0.3700 os         1 Q0B      -0.461000
     29 C39         -8.2410     1.0770     0.3570 c3         1 Q0B       0.163600
     30 C40         -8.7380     2.4110     0.9370 c3         1 Q0B      -0.092100
     31 H1           5.7960    -3.2690     1.2040 ha         1 Q0B       0.137000
     32 H2           7.1070    -3.0140    -0.9020 ha         1 Q0B       0.124000
     33 H3           6.0640    -1.9370    -2.8940 ha         1 Q0B       0.126000
     34 H4           3.7170    -1.1180    -2.7850 ha         1 Q0B       0.134000
     35 H5           1.9790    -3.6260    -1.9160 hn         1 Q0B       0.526000
     36 H6           0.2480    -3.7640    -1.8280 hn         1 Q0B       0.526000
     37 H7          -1.5360     3.1430     1.2350 ha         1 Q0B       0.129000
     38 H8          -0.3300     5.1400     2.0880 ha         1 Q0B       0.116000
     39 H9           2.1610     5.1860     2.0940 ha         1 Q0B       0.117000
     40 H10          3.4450     3.2370     1.2460 ha         1 Q0B       0.129000
     41 H11         -2.0820    -0.0190    -0.1190 hn         1 Q0B       0.345500
     42 H12         -4.1440    -1.2820    -1.6400 h1         1 Q0B       0.045700
     43 H13         -4.1440    -1.9930    -0.0070 h1         1 Q0B       0.045700
     44 H14         -4.3800     0.2990     0.9830 hc         1 Q0B       0.059200
     45 H15         -4.3800     1.0040    -0.6380 hc         1 Q0B       0.059200
     46 H16         -6.4760    -0.2500    -1.1920 h1         1 Q0B       0.020200
     47 H17         -6.4760    -0.9610     0.4430 h1         1 Q0B       0.020200
     48 H18         -8.6200     0.9590    -0.6660 h1         1 Q0B       0.018200
     49 H19         -8.6200     0.2480     0.9690 h1         1 Q0B       0.018200
     50 H20         -9.8340     2.4340     0.9470 hc         1 Q0B       0.042367
     51 H21         -8.3820     2.5420     1.9660 hc         1 Q0B       0.042367
     52 H22         -8.3820     3.2520     0.3320 hc         1 Q0B       0.042367
@<TRIPOS>BOND
     1     1     2 1   
     2     2     3 ar  
     3     2     7 ar  
     4     3     4 ar  
     5     3    31 1   
     6     4     5 ar  
     7     4    32 1   
     8     5     6 ar  
     9     5    33 1   
    10     6     7 ar  
    11     6    34 1   
    12     7     8 1   
    13     8     9 1   
    14     8    11 1   
    15     9    10 1   
    16     9    21 2   
    17    10    35 1   
    18    10    36 1   
    19    11    12 ar  
    20    11    20 ar  
    21    12    13 ar  
    22    12    21 1   
    23    13    14 ar  
    24    14    15 ar  
    25    14    19 ar  
    26    15    16 ar  
    27    15    37 1   
    28    16    17 ar  
    29    16    38 1   
    30    17    18 ar  
    31    17    39 1   
    32    18    19 ar  
    33    18    40 1   
    34    19    20 ar  
    35    21    22 1   
    36    22    23 2   
    37    22    24 1   
    38    24    25 1   
    39    24    41 1   
    40    25    26 1   
    41    25    42 1   
    42    25    43 1   
    43    26    27 1   
    44    26    44 1   
    45    26    45 1   
    46    27    28 1   
    47    27    46 1   
    48    27    47 1   
    49    28    29 1   
    50    29    30 1   
    51    29    48 1   
    52    29    49 1   
    53    30    50 1   
    54    30    51 1   
    55    30    52 1   
@<TRIPOS>SUBSTRUCTURE
     1 Q0B         1 TEMP              0 ****  ****    0 ROOT
