@<TRIPOS>MOLECULE
Q0B
   52    55     1     0     0
SMALL
bcc


@<TRIPOS>ATOM
      1 CL           3.2030    -2.2430     1.9920 cl         1 Q0B      -0.072400
      2 C15          4.0290    -2.2450     0.4790 ca         1 Q0B       0.038400
      3 C16          5.3200    -2.7400     0.3930 ca         1 Q0B      -0.119000
      4 C17          5.9630    -2.7520    -0.8360 ca         1 Q0B      -0.106000
      5 C18          5.3260    -2.2700    -1.9720 ca         1 Q0B      -0.125000
      6 C19          4.0390    -1.7650    -1.8770 ca         1 Q0B      -0.108000
      7 C14          3.3850    -1.7530    -0.6530 ca         1 Q0B      -0.008200
      8 N11          2.0730    -1.2430    -0.5550 na         1 Q0B      -0.178200
      9 C10          0.9190    -1.9290    -0.8620 cc         1 Q0B       0.361900
     10 N21          0.9610    -3.1630    -1.3280 nv         1 Q0B      -0.846600
     11 C12          1.7370     0.0060    -0.0800 ca         1 Q0B       0.379500
     12 C8           0.3010     0.1040    -0.1050 ca         1 Q0B       0.422800
     13 N7          -0.3020     1.1940     0.2840 nb         1 Q0B      -0.665000
     14 C5           0.5100     2.2030     0.7070 ca         1 Q0B       0.306300
     15 C6          -0.0650     3.4130     1.1430 ca         1 Q0B      -0.167300
     16 C1           0.7290     4.4470     1.5690 ca         1 Q0B      -0.120000
     17 C2           2.1290     4.3160     1.5830 ca         1 Q0B      -0.130000
     18 C3           2.7160     3.1470     1.1670 ca         1 Q0B      -0.156300
     19 C4           1.9260     2.0730     0.7220 ca         1 Q0B       0.287300
     20 N13          2.5430     0.9230     0.3080 nb         1 Q0B      -0.637000
     21 C9          -0.2000    -1.1280    -0.6030 cd         1 Q0B      -0.487000
     22 C22         -1.5740    -1.5340    -0.8440 c          1 Q0B       0.733300
     23 O23         -1.8530    -2.6440    -1.3100 o          1 Q0B      -0.683100
     24 N24         -2.5130    -0.6250    -0.5250 ns         1 Q0B      -0.562900
     25 C35         -3.9210    -0.8340    -0.7770 c3         1 Q0B       0.110000
     26 C36         -4.7570     0.1630     0.0100 c3         1 Q0B      -0.099400
     27 C37         -6.2330    -0.0160    -0.2870 c3         1 Q0B       0.141400
     28 O38         -6.9740     0.9040     0.4740 os         1 Q0B      -0.414600
     29 C39         -8.3630     0.7980     0.2610 c3         1 Q0B       0.140400
     30 C40         -9.0810     1.8100     1.1250 c3         1 Q0B      -0.092100
     31 H1           5.8160    -3.1170     1.2770 ha         1 Q0B       0.155000
     32 H2           6.9690    -3.1430    -0.9030 ha         1 Q0B       0.142000
     33 H3           5.8320    -2.2830    -2.9270 ha         1 Q0B       0.144000
     34 H4           3.5330    -1.3750    -2.7500 ha         1 Q0B       0.152000
     35 H5           1.8240    -3.6570    -1.4820 hn         1 Q0B       0.470800
     36 H6           0.0870    -3.6210    -1.5370 hn         1 Q0B       0.470800
     37 H7          -1.1440     3.5060     1.1300 ha         1 Q0B       0.147000
     38 H8           0.2770     5.3720     1.9010 ha         1 Q0B       0.134000
     39 H9           2.7420     5.1400     1.9220 ha         1 Q0B       0.135000
     40 H10          3.7930     3.0290     1.1710 ha         1 Q0B       0.147000
     41 H11         -2.2080     0.2860    -0.2060 hn         1 Q0B       0.345500
     42 H12         -4.1400    -0.7390    -1.8470 h1         1 Q0B       0.045700
     43 H13         -4.1920    -1.8510    -0.4890 h1         1 Q0B       0.045700
     44 H14         -4.5750     0.0290     1.0800 hc         1 Q0B       0.059200
     45 H15         -4.4580     1.1830    -0.2490 hc         1 Q0B       0.059200
     46 H16         -6.4180     0.1310    -1.3610 h1         1 Q0B       0.020200
     47 H17         -6.5400    -1.0470    -0.0530 h1         1 Q0B       0.020200
     48 H18         -8.6020     0.9700    -0.7980 h1         1 Q0B       0.018200
     49 H19         -8.7110    -0.2160     0.5010 h1         1 Q0B       0.018200
     50 H20        -10.1570     1.7260     0.9730 hc         1 Q0B       0.042367
     51 H21         -8.8790     1.6450     2.1830 hc         1 Q0B       0.042367
     52 H22         -8.7880     2.8300     0.8730 hc         1 Q0B       0.042367
@<TRIPOS>BOND
     1     1     2 1   
     2     2     3 ar  
     3     2     7 ar  
     4     3     4 ar  
     5     3    31 1   
     6     4     5 ar  
     7     4    32 1   
     8     5     6 ar  
     9     5    33 1   
    10     6     7 ar  
    11     6    34 1   
    12     7     8 1   
    13     8     9 1   
    14     8    11 1   
    15     9    10 1   
    16     9    21 2   
    17    10    35 1   
    18    10    36 1   
    19    11    12 ar  
    20    11    20 ar  
    21    12    13 ar  
    22    12    21 1   
    23    13    14 ar  
    24    14    15 ar  
    25    14    19 ar  
    26    15    16 ar  
    27    15    37 1   
    28    16    17 ar  
    29    16    38 1   
    30    17    18 ar  
    31    17    39 1   
    32    18    19 ar  
    33    18    40 1   
    34    19    20 ar  
    35    21    22 1   
    36    22    23 2   
    37    22    24 1   
    38    24    25 1   
    39    24    41 1   
    40    25    26 1   
    41    25    42 1   
    42    25    43 1   
    43    26    27 1   
    44    26    44 1   
    45    26    45 1   
    46    27    28 1   
    47    27    46 1   
    48    27    47 1   
    49    28    29 1   
    50    29    30 1   
    51    29    48 1   
    52    29    49 1   
    53    30    50 1   
    54    30    51 1   
    55    30    52 1   
@<TRIPOS>SUBSTRUCTURE
     1 Q0B         1 TEMP              0 ****  ****    0 ROOT
