@<TRIPOS>MOLECULE
Q0C
   41    43     1     0     0
SMALL
No Charge or Current Charge


@<TRIPOS>ATOM
      1 C10         -5.3790   -30.5610     4.7050 ca         1 Q0C      -0.098000
      2 C11         -6.4800   -31.3580     4.3450 ca         1 Q0C      -0.100000
      3 C12         -7.7010   -30.7550     4.0010 ca         1 Q0C       0.125000
      4 C18          2.3800   -26.7950     4.7680 cc         1 Q0C       0.313500
      5 C19          3.8580   -26.9550     4.7940 ca         1 Q0C      -0.073500
      6 C20          4.5610   -27.9880     4.1270 ca         1 Q0C      -0.146000
      7 C21          5.9650   -28.0390     4.1820 ca         1 Q0C       0.325900
      8 C23          6.0640   -26.1210     5.4570 ca         1 Q0C       0.325900
      9 C24          4.6650   -25.9930     5.4500 ca         1 Q0C      -0.146000
     10 C02          1.3910   -27.7500     4.3720 cc         1 Q0C      -0.220300
     11 C03          0.1980   -27.0970     4.4590 cd         1 Q0C      -0.005400
     12 C05         -2.2730   -27.0100     4.2680 c          1 Q0C       0.605100
     13 C07         -3.4750   -27.8720     3.8710 c3         1 Q0C      -0.150400
     14 C09         -5.4970   -29.1570     4.7230 ca         1 Q0C      -0.088300
     15 C14         -7.8240   -29.3570     4.0160 ca         1 Q0C      -0.100000
     16 C15         -6.7240   -28.5580     4.3760 ca         1 Q0C      -0.098000
     17 N04         -1.0450   -27.6360     4.1770 ns         1 Q0C      -0.396100
     18 N16          0.4870   -25.8090     4.8930 na         1 Q0C      -0.006200
     19 N17          1.8490   -25.6210     5.0850 nd         1 Q0C      -0.499800
     20 N22          6.7150   -27.1280     4.8390 nb         1 Q0C      -0.662000
     21 O06         -2.3950   -25.8420     4.6140 o          1 Q0C      -0.600100
     22 Cl13        -9.0780   -31.7540     3.5510 cl         1 Q0C      -0.209000
     23 H1          -4.4360   -31.0350     4.9670 ha         1 Q0C       0.118000
     24 H2          -6.3880   -32.4410     4.3310 ha         1 Q0C       0.132000
     25 H3           4.0620   -28.7400     3.5330 ha         1 Q0C       0.129500
     26 H4           6.5080   -28.8320     3.6690 h4         1 Q0C       0.018100
     27 H5           6.6830   -25.3890     5.9740 h4         1 Q0C       0.018100
     28 H6           4.2230   -25.1510     5.9740 ha         1 Q0C       0.129500
     29 H7           1.9420   -29.3000     2.9670 hc         1 Q0C       0.037033
     30 H8           2.3380   -29.6750     4.6680 hc         1 Q0C       0.037033
     31 H9           0.6780   -29.7770     4.1020 hc         1 Q0C       0.037033
     32 H10         -4.1200   -27.2880     3.2050 hc         1 Q0C       0.067700
     33 H11         -3.1380   -28.7800     3.3560 hc         1 Q0C       0.067700
     34 H12         -3.6570   -28.8300     5.8110 hc         1 Q0C       0.067200
     35 H13         -4.6460   -27.3930     5.6360 hc         1 Q0C       0.067200
     36 H14         -8.7700   -28.8930     3.7480 ha         1 Q0C       0.132000
     37 H15         -6.8260   -27.4750     4.3820 ha         1 Q0C       0.118000
     38 H16         -1.0960   -28.5990     3.8680 hn         1 Q0C       0.338500
     39 H17         -0.1960   -25.0710     5.0600 hn         1 Q0C       0.406000
     40 C08         -4.3030   -28.2910     5.1070 c3         1 Q0C      -0.018100
     41 C01          1.6050   -29.2000     4.0050 c3         1 Q0C      -0.003800
@<TRIPOS>BOND
     1     1     2 ar  
     2     1    14 ar  
     3     1    23 1   
     4     2     3 ar  
     5     2    24 1   
     6     3    15 ar  
     7     3    22 1   
     8     4     5 1   
     9     4    10 1   
    10     4    19 2   
    11     5     6 ar  
    12     5     9 ar  
    13     6     7 ar  
    14     6    25 1   
    15     7    20 ar  
    16     7    26 1   
    17     8     9 ar  
    18     8    20 ar  
    19     8    27 1   
    20     9    28 1   
    21    10    11 2   
    22    10    41 1   
    23    11    17 1   
    24    11    18 1   
    25    12    13 1   
    26    12    17 1   
    27    12    21 2   
    28    13    32 1   
    29    13    33 1   
    30    13    40 1   
    31    14    16 ar  
    32    14    40 1   
    33    15    16 ar  
    34    15    36 1   
    35    16    37 1   
    36    17    38 1   
    37    18    19 1   
    38    18    39 1   
    39    29    41 1   
    40    30    41 1   
    41    31    41 1   
    42    34    40 1   
    43    35    40 1   
@<TRIPOS>SUBSTRUCTURE
     1 Q0C         1 TEMP              0 ****  ****    0 ROOT
