@<TRIPOS>MOLECULE
Q0C
   41    43     1     0     0
SMALL
abcg2


@<TRIPOS>ATOM
      1 C10         -6.0430   -30.1620     5.3900 ca         1 Q0C      -0.098000
      2 C11         -7.0990   -30.9600     4.9650 ca         1 Q0C      -0.100000
      3 C12         -7.8540   -30.5510     3.8750 ca         1 Q0C       0.125000
      4 C18          2.4510   -26.9040     4.7610 cc         1 Q0C       0.313500
      5 C19          3.9110   -26.8130     4.6650 ca         1 Q0C      -0.073500
      6 C20          4.6230   -27.3880     3.6100 ca         1 Q0C      -0.146000
      7 C21          6.0050   -27.2580     3.5710 ca         1 Q0C       0.325900
      8 C23          6.0310   -26.0490     5.5020 ca         1 Q0C       0.325900
      9 C24          4.6540   -26.1260     5.6310 ca         1 Q0C      -0.146000
     10 C02          1.5890   -27.9250     4.2790 cc         1 Q0C      -0.220300
     11 C03          0.3280   -27.4900     4.6560 cd         1 Q0C      -0.005400
     12 C05         -2.1130   -27.6020     4.8300 c          1 Q0C       0.605100
     13 C07         -3.2990   -28.4420     4.4070 c3         1 Q0C      -0.150400
     14 C09         -5.7330   -28.9650     4.7440 ca         1 Q0C      -0.088300
     15 C14         -7.5720   -29.3660     3.2090 ca         1 Q0C      -0.100000
     16 C15         -6.5120   -28.5820     3.6510 ca         1 Q0C      -0.098000
     17 N04         -0.9000   -28.0980     4.4480 ns         1 Q0C      -0.396100
     18 N16          0.4790   -26.3130     5.3060 na         1 Q0C      -0.006200
     19 N17          1.7660   -25.9360     5.3830 nd         1 Q0C      -0.499800
     20 N22          6.7160   -26.6040     4.4940 nb         1 Q0C      -0.662000
     21 O06         -2.2170   -26.5450     5.4460 o          1 Q0C      -0.600100
     22 CL13        -9.1940   -31.5440     3.3330 cl         1 Q0C      -0.209000
     23 H1          -5.4550   -30.4770     6.2430 ha         1 Q0C       0.118000
     24 H2          -7.3340   -31.8840     5.4770 ha         1 Q0C       0.132000
     25 H3           4.1180   -27.9120     2.8120 ha         1 Q0C       0.129500
     26 H4           6.5640   -27.6990     2.7530 h4         1 Q0C       0.018100
     27 H5           6.6150   -25.5200     6.2480 h4         1 Q0C       0.018100
     28 H6           4.1610   -25.6660     6.4760 ha         1 Q0C       0.129500
     29 H7           2.0350   -29.0720     2.5020 hc         1 Q0C       0.037033
     30 H8           2.8470   -29.6320     3.9610 hc         1 Q0C       0.037033
     31 H9           1.1330   -29.9480     3.7360 hc         1 Q0C       0.037033
     32 H10         -3.4630   -28.2600     3.3400 hc         1 Q0C       0.067700
     33 H11         -3.0450   -29.5010     4.5020 hc         1 Q0C       0.067700
     34 H12         -4.3840   -28.2920     6.2580 hc         1 Q0C       0.067200
     35 H13         -4.8080   -27.0640     5.0750 hc         1 Q0C       0.067200
     36 H14         -8.1720   -29.0570     2.3640 ha         1 Q0C       0.132000
     37 H15         -6.2930   -27.6540     3.1350 ha         1 Q0C       0.118000
     38 H16         -0.8850   -28.9730     3.9450 hn         1 Q0C       0.338500
     39 H17         -0.2730   -25.7540     5.6790 hn         1 Q0C       0.406000
     40 C08         -4.5700   -28.1220     5.1960 c3         1 Q0C      -0.018100
     41 C01          1.9180   -29.2060     3.5810 c3         1 Q0C      -0.003800
@<TRIPOS>BOND
     1     1     2 ar  
     2     1    14 ar  
     3     1    23 1   
     4     2     3 ar  
     5     2    24 1   
     6     3    15 ar  
     7     3    22 1   
     8     4     5 1   
     9     4    10 1   
    10     4    19 2   
    11     5     6 ar  
    12     5     9 ar  
    13     6     7 ar  
    14     6    25 1   
    15     7    20 ar  
    16     7    26 1   
    17     8     9 ar  
    18     8    20 ar  
    19     8    27 1   
    20     9    28 1   
    21    10    11 2   
    22    10    41 1   
    23    11    17 1   
    24    11    18 1   
    25    12    13 1   
    26    12    17 1   
    27    12    21 2   
    28    13    32 1   
    29    13    33 1   
    30    13    40 1   
    31    14    16 ar  
    32    14    40 1   
    33    15    16 ar  
    34    15    36 1   
    35    16    37 1   
    36    17    38 1   
    37    18    19 1   
    38    18    39 1   
    39    29    41 1   
    40    30    41 1   
    41    31    41 1   
    42    34    40 1   
    43    35    40 1   
@<TRIPOS>SUBSTRUCTURE
     1 Q0C         1 TEMP              0 ****  ****    0 ROOT
