@<TRIPOS>MOLECULE
Q0D
   52    55     1     0     0
SMALL
bcc


@<TRIPOS>ATOM
      1 C1           1.0310     1.9890    -0.4860 ca         1 Q0D      -0.163600
      2 C2          -0.1330     1.7680    -1.2100 ca         1 Q0D      -0.068000
      3 C4          -3.9000     0.2810    -0.5570 c3         1 Q0D       0.000700
      4 C5          -5.1100    -0.1350    -1.3910 c3         1 Q0D      -0.023100
      5 C6          -6.1060    -0.8630    -0.5300 ca         1 Q0D      -0.073300
      6 C15          2.9560    -0.5280     1.3540 ca         1 Q0D      -0.292500
      7 C19          3.1770    -3.5870    -1.5110 ca         1 Q0D      -0.134000
      8 C23          4.1120    -1.5890    -0.4680 ca         1 Q0D      -0.060000
      9 C24          4.0230    -0.5640     0.4980 ca         1 Q0D       0.021000
     10 O3           1.9020     0.4050     3.5540 o          1 Q0D      -0.635300
     11 S1           2.8290     0.8110     2.5090 sy         1 Q0D       1.268200
     12 O2           4.1650     1.2510     2.8790 o          1 Q0D      -0.635300
     13 C22          5.2050    -1.6680    -1.3640 ca         1 Q0D      -0.083000
     14 C21          5.2690    -2.6720    -2.2900 ca         1 Q0D      -0.150000
     15 C20          4.2450    -3.6400    -2.3640 ca         1 Q0D      -0.116000
     16 C18          3.0820    -2.5620    -0.5420 ca         1 Q0D       0.005000
     17 C17          1.9940    -2.4820     0.3570 ca         1 Q0D      -0.148000
     18 C16          1.9240    -1.4870     1.2910 ca         1 Q0D      -0.037000
     19 N            2.1730     2.0650     1.6570 nu         1 Q0D      -0.682500
     20 C14          0.9940     1.8330     0.9090 ca         1 Q0D       0.124600
     21 C            2.2890     2.4130    -1.2380 c          1 Q0D       0.930200
     22 O1           3.2780     2.7660    -0.5370 o          1 Q0D      -0.795800
     23 O            2.2490     2.3980    -2.4720 o          1 Q0D      -0.795800
     24 C13         -0.1970     1.4830     1.5330 ca         1 Q0D      -0.154000
     25 C12         -1.3470     1.2630     0.7930 ca         1 Q0D      -0.136000
     26 C3          -1.3230     1.3990    -0.5920 ca         1 Q0D       0.006900
     27 S           -2.7350     1.1730    -1.6240 ss         1 Q0D      -0.287000
     28 C11         -7.1180    -0.1690     0.1280 ca         1 Q0D      -0.124000
     29 C10         -8.0090    -0.8320     0.9620 ca         1 Q0D      -0.130000
     30 C9          -7.8980    -2.2030     1.1500 ca         1 Q0D      -0.135000
     31 C8          -6.8930    -2.9050     0.4980 ca         1 Q0D      -0.130000
     32 C7          -6.0050    -2.2390    -0.3350 ca         1 Q0D      -0.124000
     33 H1          -0.0940     1.8780    -2.2870 ha         1 Q0D       0.162000
     34 H2          -4.2210     0.9200     0.2670 h1         1 Q0D       0.063700
     35 H3          -3.4040    -0.5960    -0.1380 h1         1 Q0D       0.063700
     36 H4          -5.5740     0.7500    -1.8330 hc         1 Q0D       0.057700
     37 H5          -4.7850    -0.7720    -2.2160 hc         1 Q0D       0.057700
     38 H6           2.3920    -4.3310    -1.5690 ha         1 Q0D       0.123000
     39 H7           4.8090     0.1800     0.5490 ha         1 Q0D       0.163000
     40 H8           5.9890    -0.9230    -1.3050 ha         1 Q0D       0.138000
     41 H9           6.1070    -2.7280    -2.9720 ha         1 Q0D       0.123000
     42 H10          4.3100    -4.4290    -3.1010 ha         1 Q0D       0.118000
     43 H11          1.2080    -3.2240     0.3020 ha         1 Q0D       0.122000
     44 H12          1.0900    -1.4450     1.9760 ha         1 Q0D       0.150000
     45 H13          2.8750     2.4590     0.9730 hn         1 Q0D       0.513800
     46 H15         -0.2420     1.3930     2.6090 ha         1 Q0D       0.148000
     47 H16         -2.2560     0.9990     1.3150 ha         1 Q0D       0.116000
     48 H17         -7.2130     0.9020    -0.0160 ha         1 Q0D       0.131500
     49 H18         -8.7920    -0.2760     1.4620 ha         1 Q0D       0.125500
     50 H19         -8.5930    -2.7220     1.7980 ha         1 Q0D       0.124000
     51 H20         -6.8000    -3.9750     0.6370 ha         1 Q0D       0.125500
     52 H21         -5.2240    -2.7950    -0.8420 ha         1 Q0D       0.131500
@<TRIPOS>BOND
     1     1     2 ar  
     2     1    20 ar  
     3     1    21 1   
     4     2    26 ar  
     5     2    33 1   
     6     3     4 1   
     7     3    27 1   
     8     3    34 1   
     9     3    35 1   
    10     4     5 1   
    11     4    36 1   
    12     4    37 1   
    13     5    28 ar  
    14     5    32 ar  
    15     6     9 ar  
    16     6    11 1   
    17     6    18 ar  
    18     7    15 ar  
    19     7    16 ar  
    20     7    38 1   
    21     8     9 ar  
    22     8    13 ar  
    23     8    16 ar  
    24     9    39 1   
    25    10    11 2   
    26    11    12 2   
    27    11    19 1   
    28    13    14 ar  
    29    13    40 1   
    30    14    15 ar  
    31    14    41 1   
    32    15    42 1   
    33    16    17 ar  
    34    17    18 ar  
    35    17    43 1   
    36    18    44 1   
    37    19    20 1   
    38    19    45 1   
    39    20    24 ar  
    40    21    22 1   
    41    21    23 1   
    42    24    25 ar  
    43    24    46 1   
    44    25    26 ar  
    45    25    47 1   
    46    26    27 1   
    47    28    29 ar  
    48    28    48 1   
    49    29    30 ar  
    50    29    49 1   
    51    30    31 ar  
    52    30    50 1   
    53    31    32 ar  
    54    31    51 1   
    55    32    52 1   
@<TRIPOS>SUBSTRUCTURE
     1 Q0D         1 TEMP              0 ****  ****    0 ROOT
