@<TRIPOS>MOLECULE
Q0D
   52    55     1     0     0
SMALL
No Charge or Current Charge


@<TRIPOS>ATOM
      1 C1           1.0760     2.4310    -0.4890 ca         1 Q0D      -0.163600
      2 C2          -0.1280     2.2260    -1.2070 ca         1 Q0D      -0.050000
      3 C4          -3.8460     0.3150    -0.6120 c3         1 Q0D       0.048600
      4 C5          -5.1250    -0.0130    -1.4030 c3         1 Q0D      -0.023100
      5 C6          -6.0760    -0.8930    -0.6030 ca         1 Q0D      -0.073300
      6 C15          3.0740    -0.4730     1.4440 ca         1 Q0D      -0.292500
      7 C19          2.9270    -3.8780    -1.0550 ca         1 Q0D      -0.116000
      8 C23          3.9150    -1.7220    -0.4780 ca         1 Q0D      -0.060000
      9 C24          3.9620    -0.5880     0.3550 ca         1 Q0D       0.039000
     10 O3           2.3230     0.8120     3.6900 o          1 Q0D      -0.564500
     11 S1           3.1210     0.9930     2.4750 sy         1 Q0D       1.126600
     12 O2           4.4790     1.5360     2.5010 o          1 Q0D      -0.564500
     13 C22          4.7990    -1.8420    -1.5680 ca         1 Q0D      -0.065000
     14 C21          4.7460    -2.9760    -2.3970 ca         1 Q0D      -0.132000
     15 C20          3.8120    -3.9930    -2.1410 ca         1 Q0D      -0.098000
     16 C18          2.9750    -2.7450    -0.2210 ca         1 Q0D       0.005000
     17 C17          2.0880    -2.6250     0.8640 ca         1 Q0D      -0.130000
     18 C16          2.1340    -1.4930     1.6950 ca         1 Q0D      -0.019000
     19 N            2.3090     2.1550     1.5960 nu         1 Q0D      -0.876100
     20 C14          1.1470     1.9840     0.8560 ca         1 Q0D       0.263000
     21 C            2.2400     3.1140    -1.1860 c          1 Q0D       0.719600
     22 O1           3.3620     3.0260    -0.7020 o          1 Q0D      -0.690500
     23 O            2.0140     3.7340    -2.2160 o          1 Q0D      -0.690500
     24 C13          0.0250     1.3700     1.4460 ca         1 Q0D      -0.136000
     25 C12         -1.1590     1.1740     0.7200 ca         1 Q0D      -0.118000
     26 C3          -1.2380     1.5980    -0.6170 ca         1 Q0D      -0.120000
     27 S           -2.7160     1.3800    -1.6150 ss         1 Q0D      -0.208000
     28 C11         -7.0620    -0.3110     0.2180 ca         1 Q0D      -0.106000
     29 C10         -7.9360    -1.1230     0.9620 ca         1 Q0D      -0.112000
     30 C9          -7.8270    -2.5220     0.8910 ca         1 Q0D      -0.117000
     31 C8          -6.8440    -3.1080     0.0760 ca         1 Q0D      -0.112000
     32 C7          -5.9700    -2.2960    -0.6680 ca         1 Q0D      -0.106000
     33 H1          -0.2060     2.5520    -2.2420 ha         1 Q0D       0.144000
     34 H2          -4.1130     0.8430     0.3130 h1         1 Q0D       0.063700
     35 H3          -3.3250    -0.6150    -0.3520 h1         1 Q0D       0.063700
     36 H4          -5.6210     0.9230    -1.6860 hc         1 Q0D       0.057700
     37 H5          -4.8480    -0.5110    -2.3410 hc         1 Q0D       0.057700
     38 H6           2.2050    -4.6690    -0.8630 ha         1 Q0D       0.105000
     39 H7           4.6830     0.2020     0.1500 ha         1 Q0D       0.145000
     40 H8           5.5260    -1.0590    -1.7750 ha         1 Q0D       0.120000
     41 H9           5.4300    -3.0660    -3.2380 ha         1 Q0D       0.105000
     42 H10          3.7720    -4.8700    -2.7830 ha         1 Q0D       0.100000
     43 H11          1.3600    -3.4070     1.0650 ha         1 Q0D       0.104000
     44 H12          1.4360    -1.4120     2.5260 ha         1 Q0D       0.132000
     45 H13          3.0630     2.5320     1.0210 hn         1 Q0D       0.569000
     46 H15          0.0620     1.0470     2.4810 ha         1 Q0D       0.130000
     47 H16         -2.0000     0.6980     1.2150 ha         1 Q0D       0.098000
     48 H17         -7.1520     0.7720     0.2800 ha         1 Q0D       0.113500
     49 H18         -8.6960    -0.6680     1.5930 ha         1 Q0D       0.107500
     50 H19         -8.5030    -3.1500     1.4670 ha         1 Q0D       0.106000
     51 H20         -6.7580    -4.1910     0.0220 ha         1 Q0D       0.107500
     52 H21         -5.2100    -2.7580    -1.2940 ha         1 Q0D       0.113500
@<TRIPOS>BOND
     1     1     2 ar  
     2     1    20 ar  
     3     1    21 1   
     4     2    26 ar  
     5     2    33 1   
     6     3     4 1   
     7     3    27 1   
     8     3    34 1   
     9     3    35 1   
    10     4     5 1   
    11     4    36 1   
    12     4    37 1   
    13     5    28 ar  
    14     5    32 ar  
    15     6     9 ar  
    16     6    11 1   
    17     6    18 ar  
    18     7    15 ar  
    19     7    16 ar  
    20     7    38 1   
    21     8     9 ar  
    22     8    13 ar  
    23     8    16 ar  
    24     9    39 1   
    25    10    11 2   
    26    11    12 2   
    27    11    19 1   
    28    13    14 ar  
    29    13    40 1   
    30    14    15 ar  
    31    14    41 1   
    32    15    42 1   
    33    16    17 ar  
    34    17    18 ar  
    35    17    43 1   
    36    18    44 1   
    37    19    20 1   
    38    19    45 1   
    39    20    24 ar  
    40    21    22 1   
    41    21    23 1   
    42    24    25 ar  
    43    24    46 1   
    44    25    26 ar  
    45    25    47 1   
    46    26    27 1   
    47    28    29 ar  
    48    28    48 1   
    49    29    30 ar  
    50    29    49 1   
    51    30    31 ar  
    52    30    50 1   
    53    31    32 ar  
    54    31    51 1   
    55    32    52 1   
@<TRIPOS>SUBSTRUCTURE
     1 Q0D         1 TEMP              0 ****  ****    0 ROOT
