@<TRIPOS>MOLECULE
Q0E
   32    34     1     0     0
SMALL
No Charge or Current Charge


@<TRIPOS>ATOM
      1 C10         20.3160    15.5440    34.2790 cc         1 Q0E      -0.308500
      2 N12         20.8600    15.1970    36.3670 na         1 Q0E       0.133800
      3 C15         21.1760    14.5580    37.6570 c3         1 Q0E       0.141900
      4 C17         23.4230    14.7600    38.8340 ca         1 Q0E       0.366900
      5 C20         24.6240    12.9920    37.1100 ca         1 Q0E      -0.165000
      6 C21         23.2650    13.2840    36.9200 ca         1 Q0E      -0.053000
      7 C02         19.3370    14.1600    30.8890 ca         1 Q0E       0.430900
      8 N03         18.5530    15.1510    30.4530 nb         1 Q0E      -0.280000
      9 C04         18.4160    16.2060    31.2750 ca         1 Q0E       0.197900
     10 N05         18.9850    16.3550    32.4860 nb         1 Q0E      -0.238000
     11 C06         19.7810    15.3580    32.9260 ca         1 Q0E       0.317500
     12 C07         19.9840    14.2000    32.1350 ca         1 Q0E      -0.237000
     13 C08         20.8620    13.1410    32.5360 cg         1 Q0E       0.354000
     14 N09         21.5700    12.2700    32.8520 n1         1 Q0E      -0.492000
     15 C11         20.4260    14.5460    35.2070 cd         1 Q0E      -0.119000
     16 N13         20.9610    16.5750    36.2060 nd         1 Q0E      -0.523800
     17 C14         20.6050    16.7420    34.9480 cc         1 Q0E       0.300900
     18 C16         22.6490    14.1910    37.8040 ca         1 Q0E      -0.170300
     19 N18         24.7340    14.4780    39.0200 nb         1 Q0E      -0.664000
     20 C19         25.3180    13.6060    38.1650 ca         1 Q0E       0.348900
     21 H1          20.8750    15.2380    38.4630 h1         1 Q0E       0.072700
     22 H2          20.5680    13.6510    37.7510 h1         1 Q0E       0.072700
     23 H3          22.9810    15.4670    39.5370 h4         1 Q0E       0.023100
     24 H4          25.1400    12.2980    36.4520 ha         1 Q0E       0.128000
     25 H5          22.7080    12.8190    36.1090 ha         1 Q0E       0.122000
     26 H6          18.8030    13.0890    29.2270 hn         1 Q0E       0.507500
     27 H7          19.8170    12.2310    30.3360 hn         1 Q0E       0.507500
     28 H8          17.7780    17.0180    30.9300 h5         1 Q0E       0.050100
     29 H9          20.2280    13.4810    35.1670 h4         1 Q0E       0.164000
     30 H10         20.5640    17.7470    34.5460 h4         1 Q0E       0.057100
     31 H11         26.3740    13.3940    38.3330 h4         1 Q0E       0.022100
     32 N01         19.4490    13.1230    30.0120 nv         1 Q0E      -1.068900
@<TRIPOS>BOND
     1     1    11 1   
     2     1    15 2   
     3     1    17 1   
     4     2     3 1   
     5     2    15 1   
     6     2    16 1   
     7     3    18 1   
     8     3    21 1   
     9     3    22 1   
    10     4    18 ar  
    11     4    19 ar  
    12     4    23 1   
    13     5     6 ar  
    14     5    20 ar  
    15     5    24 1   
    16     6    18 ar  
    17     6    25 1   
    18     7     8 ar  
    19     7    12 ar  
    20     7    32 1   
    21     8     9 ar  
    22     9    10 ar  
    23     9    28 1   
    24    10    11 ar  
    25    11    12 ar  
    26    12    13 1   
    27    13    14 3   
    28    15    29 1   
    29    16    17 2   
    30    17    30 1   
    31    19    20 ar  
    32    20    31 1   
    33    26    32 1   
    34    27    32 1   
@<TRIPOS>SUBSTRUCTURE
     1 Q0E         1 TEMP              0 ****  ****    0 ROOT
