@<TRIPOS>MOLECULE
Q0E
   32    34     1     0     0
SMALL
abcg2


@<TRIPOS>ATOM
      1 C10         20.2670    15.3100    34.3050 cc         1 Q0E      -0.308500
      2 N12         20.8550    14.8650    36.3600 na         1 Q0E       0.133800
      3 C15         21.2010    14.2000    37.6010 c3         1 Q0E       0.141900
      4 C17         23.3080    14.8810    38.7930 ca         1 Q0E       0.366900
      5 C20         24.8630    13.3420    37.2020 ca         1 Q0E      -0.165000
      6 C21         23.4970    13.3490    36.9840 ca         1 Q0E      -0.053000
      7 C02         19.1770    14.2570    30.8400 ca         1 Q0E       0.430900
      8 N03         18.8310    15.4600    30.3720 nb         1 Q0E      -0.280000
      9 C04         18.9970    16.4840    31.1820 ca         1 Q0E       0.197900
     10 N05         19.4430    16.4730    32.4260 nb         1 Q0E      -0.238000
     11 C06         19.7880    15.2880    32.9370 ca         1 Q0E       0.317500
     12 C07         19.6930    14.1300    32.1580 ca         1 Q0E      -0.237000
     13 C08         20.1200    12.8610    32.6110 cg         1 Q0E       0.354000
     14 N09         20.4640    11.8090    32.9380 n1         1 Q0E      -0.492000
     15 C11         20.3950    14.2970    35.2420 cd         1 Q0E      -0.119000
     16 N13         21.0530    16.1790    36.2300 nd         1 Q0E      -0.523800
     17 C14         20.6910    16.4650    35.0020 cc         1 Q0E       0.300900
     18 C16         22.6900    14.1380    37.7960 ca         1 Q0E      -0.170300
     19 N18         24.6170    14.8790    39.0130 nb         1 Q0E      -0.664000
     20 C19         25.3750    14.1240    38.2290 ca         1 Q0E       0.348900
     21 H1          20.7240    14.7340    38.4230 h1         1 Q0E       0.072700
     22 H2          20.7710    13.1990    37.5620 h1         1 Q0E       0.072700
     23 H3          22.7080    15.5060    39.4470 h4         1 Q0E       0.023100
     24 H4          25.5240    12.7410    36.5920 ha         1 Q0E       0.128000
     25 H5          23.0640    12.7470    36.1930 ha         1 Q0E       0.122000
     26 H6          18.6630    13.3550    29.1050 hn         1 Q0E       0.507500
     27 H7          19.2360    12.2690    30.3110 hn         1 Q0E       0.507500
     28 H8          18.7290    17.4560    30.7810 h5         1 Q0E       0.050100
     29 H9          20.1710    13.2440    35.2110 h4         1 Q0E       0.164000
     30 H10         20.7450    17.4770    34.6310 h4         1 Q0E       0.057100
     31 H11         26.4410    14.1390    38.4250 h4         1 Q0E       0.022100
     32 N01         19.0300    13.2130    30.0310 nv         1 Q0E      -1.068900
@<TRIPOS>BOND
     1     1    11 1   
     2     1    15 2   
     3     1    17 1   
     4     2     3 1   
     5     2    15 1   
     6     2    16 1   
     7     3    18 1   
     8     3    21 1   
     9     3    22 1   
    10     4    18 ar  
    11     4    19 ar  
    12     4    23 1   
    13     5     6 ar  
    14     5    20 ar  
    15     5    24 1   
    16     6    18 ar  
    17     6    25 1   
    18     7     8 ar  
    19     7    12 ar  
    20     7    32 1   
    21     8     9 ar  
    22     9    10 ar  
    23     9    28 1   
    24    10    11 ar  
    25    11    12 ar  
    26    12    13 1   
    27    13    14 3   
    28    15    29 1   
    29    16    17 2   
    30    17    30 1   
    31    19    20 ar  
    32    20    31 1   
    33    26    32 1   
    34    27    32 1   
@<TRIPOS>SUBSTRUCTURE
     1 Q0E         1 TEMP              0 ****  ****    0 ROOT
