@<TRIPOS>MOLECULE
Q0F
   88    91     1     0     0
SMALL
abcg2


@<TRIPOS>ATOM
      1 C4          25.7480   -25.3180   -45.6960 ca         1 Q0F      -0.105000
      2 C14         30.4240   -19.3370   -46.6780 c6         1 Q0F       0.334400
      3 C5          25.1540   -25.7060   -44.5050 ca         1 Q0F      -0.036000
      4 C6          25.2650   -27.0320   -44.0880 ca         1 Q0F       0.085000
      5 C11         29.5770   -22.7580   -47.5230 ce         1 Q0F      -0.153000
      6 C7          27.1620   -25.7580   -47.7220 c3         1 Q0F       0.001100
      7 C8          28.4040   -24.9600   -47.4100 c2         1 Q0F      -0.088400
      8 C9          29.4830   -25.7170   -46.7030 c3         1 Q0F      -0.062900
      9 C10         28.4700   -23.6660   -47.7600 ce         1 Q0F      -0.192000
     10 C12         29.5480   -21.4530   -47.8180 c2         1 Q0F      -0.250200
     11 C13         30.7300   -20.5680   -47.5730 c3         1 Q0F       0.207500
     12 C3          26.4700   -26.2230   -46.4660 ca         1 Q0F      -0.061300
     13 C1          25.9740   -27.9540   -44.8510 ca         1 Q0F       0.116100
     14 C17         32.5500   -18.9580   -45.4500 c          1 Q0F       0.718100
     15 C19         30.8620   -20.4480   -44.4740 c6         1 Q0F       0.210300
     16 C2          26.5670   -27.5400   -46.0370 ca         1 Q0F      -0.120000
     17 C20         29.8500   -19.6980   -45.3130 c6         1 Q0F      -0.153400
     18 C22         30.5180   -20.5640   -42.9830 c3         1 Q0F      -0.056700
     19 C23         29.0920   -21.0220   -42.7340 cx         1 Q0F       0.095300
     20 C24         30.7370   -19.2650   -42.2060 c3         1 Q0F      -0.086100
     21 C25         28.5340   -22.3460   -43.0300 cx         1 Q0F       0.091000
     22 C26         27.0160   -22.4340   -43.1070 c3         1 Q0F       0.191300
     23 C27         26.4840   -23.8280   -42.8000 c3         1 Q0F      -0.163400
     24 C28         24.9770   -23.8400   -42.9420 c          1 Q0F       0.611100
     25 C36         25.1320   -30.1290   -44.9430 c3         1 Q0F       0.148900
     26 C37         30.6300   -19.9510   -49.9200 c3         1 Q0F       0.150900
     27 C38         29.3280   -23.4180   -43.7240 c3         1 Q0F      -0.082100
     28 C40         24.8430   -21.1000   -45.7410 c3         1 Q0F      -0.134400
     29 C43         25.5690   -21.2060   -47.0850 c3         1 Q0F      -0.040200
     30 C44         26.2700   -19.9410   -47.4640 c2         1 Q0F      -0.229200
     31 C45         26.0350   -19.2530   -48.5750 c2         1 Q0F      -0.307000
     32 N16         31.6610   -18.6190   -46.4120 ns         1 Q0F      -0.560900
     33 N31         24.4110   -24.7850   -43.7310 n          1 Q0F      -0.240400
     34 O15         31.3920   -20.1380   -48.7480 os         1 Q0F      -0.451000
     35 O18         32.1670   -19.8550   -44.5380 os         1 Q0F      -0.457100
     36 O21         33.6620   -18.4850   -45.3660 o          1 Q0F      -0.540000
     37 O29         28.9370   -22.0000   -41.7130 op         1 Q0F      -0.427000
     38 O30         26.5260   -22.0900   -44.4120 os         1 Q0F      -0.468100
     39 O32         24.2900   -23.0170   -42.3560 o          1 Q0F      -0.591100
     40 O34         26.1060   -29.2300   -44.4220 os         1 Q0F      -0.348100
     41 O41         25.7260   -20.1060   -43.7400 o          1 Q0F      -0.463000
     42 O42         29.5680   -18.5090   -47.3970 oh         1 Q0F      -0.707000
     43 CL33        24.5510   -27.5280   -42.6020 cl         1 Q0F      -0.161000
     44 H1          25.6540   -24.2870   -46.0140 ha         1 Q0F       0.134000
     45 H2          30.4820   -23.1600   -47.0750 ha         1 Q0F       0.172000
     46 H3          26.4740   -25.1550   -48.3180 hc         1 Q0F       0.059200
     47 H4          27.4350   -26.6290   -48.3260 hc         1 Q0F       0.059200
     48 H5          29.7250   -26.6320   -47.2500 hc         1 Q0F       0.047033
     49 H6          30.4020   -25.1510   -46.5770 hc         1 Q0F       0.047033
     50 H7          29.1510   -26.0310   -45.7110 hc         1 Q0F       0.047033
     51 H8          27.6170   -23.2380   -48.2800 ha         1 Q0F       0.172000
     52 H9          28.6550   -21.0190   -48.2580 ha         1 Q0F       0.193000
     53 H10         31.4770   -21.1660   -47.0400 h1         1 Q0F       0.072700
     54 H11         30.9650   -21.4600   -44.8770 h1         1 Q0F       0.054700
     55 H12         27.1270   -28.2620   -46.6210 ha         1 Q0F       0.130000
     56 H13         29.5450   -18.7700   -44.8180 hc         1 Q0F       0.076700
     57 H14         28.9590   -20.3170   -45.4260 hc         1 Q0F       0.076700
     58 H15         31.1860   -21.3240   -42.5670 hc         1 Q0F       0.080700
     59 H16         28.3750   -20.2010   -42.6740 h1         1 Q0F       0.099700
     60 H17         30.4450   -19.4030   -41.1650 hc         1 Q0F       0.046700
     61 H18         31.7790   -18.9550   -42.2120 hc         1 Q0F       0.046700
     62 H19         30.1350   -18.4460   -42.6060 hc         1 Q0F       0.046700
     63 H20         26.6110   -21.7320   -42.3770 h1         1 Q0F       0.101700
     64 H21         26.9670   -24.5780   -43.4210 hc         1 Q0F       0.084200
     65 H22         26.7250   -24.0730   -41.7610 hc         1 Q0F       0.084200
     66 H23         22.4870   -24.8800   -42.8670 h1         1 Q0F       0.046700
     67 H24         22.5890   -23.9230   -44.3550 h1         1 Q0F       0.046700
     68 H25         22.6680   -25.6850   -44.4260 h1         1 Q0F       0.046700
     69 H26         25.3410   -31.1070   -44.5160 h1         1 Q0F       0.041033
     70 H27         24.1190   -29.8290   -44.6630 h1         1 Q0F       0.041033
     71 H28         25.1930   -30.1960   -46.0320 h1         1 Q0F       0.041033
     72 H29         31.3210   -19.5890   -50.6810 h1         1 Q0F       0.035367
     73 H30         30.1880   -20.8830   -50.2830 h1         1 Q0F       0.035367
     74 H31         29.8320   -19.2150   -49.8070 h1         1 Q0F       0.035367
     75 H32         30.4010   -23.2530   -43.6370 hc         1 Q0F       0.053033
     76 H33         29.1210   -24.4030   -43.3030 hc         1 Q0F       0.053033
     77 H34         29.0750   -23.4480   -44.7840 hc         1 Q0F       0.053033
     78 H35         24.1870   -20.2300   -45.7400 hc         1 Q0F       0.076700
     79 H36         24.2130   -21.9850   -45.6100 hc         1 Q0F       0.076700
     80 H37         24.8360   -21.4640   -47.8510 hc         1 Q0F       0.053200
     81 H38         26.2830   -22.0320   -47.0470 hc         1 Q0F       0.053200
     82 H39         27.0240   -19.5750   -46.7730 ha         1 Q0F       0.172000
     83 H40         26.5780   -18.3450   -48.8030 ha         1 Q0F       0.164500
     84 H41         25.2960   -19.5740   -49.3000 ha         1 Q0F       0.164500
     85 H42         32.0500   -18.0890   -47.1790 hn         1 Q0F       0.337500
     86 H43         29.2900   -17.7730   -46.8390 ho         1 Q0F       0.519000
     87 C35         22.9590   -24.8140   -43.8460 c3         1 Q0F       0.098300
     88 C39         25.7380   -21.0100   -44.5330 c          1 Q0F       0.600100
@<TRIPOS>BOND
     1     1     3 ar  
     2     1    12 ar  
     3     1    44 1   
     4     2    11 1   
     5     2    17 1   
     6     2    32 1   
     7     2    42 1   
     8     3     4 ar  
     9     3    33 1   
    10     4    13 ar  
    11     4    43 1   
    12     5     9 1   
    13     5    10 2   
    14     5    45 1   
    15     6     7 1   
    16     6    12 1   
    17     6    46 1   
    18     6    47 1   
    19     7     8 1   
    20     7     9 2   
    21     8    48 1   
    22     8    49 1   
    23     8    50 1   
    24     9    51 1   
    25    10    11 1   
    26    10    52 1   
    27    11    34 1   
    28    11    53 1   
    29    12    16 ar  
    30    13    16 ar  
    31    13    40 1   
    32    14    32 1   
    33    14    35 1   
    34    14    36 2   
    35    15    17 1   
    36    15    18 1   
    37    15    35 1   
    38    15    54 1   
    39    16    55 1   
    40    17    56 1   
    41    17    57 1   
    42    18    19 1   
    43    18    20 1   
    44    18    58 1   
    45    19    21 1   
    46    19    37 1   
    47    19    59 1   
    48    20    60 1   
    49    20    61 1   
    50    20    62 1   
    51    21    22 1   
    52    21    27 1   
    53    21    37 1   
    54    22    23 1   
    55    22    38 1   
    56    22    63 1   
    57    23    24 1   
    58    23    64 1   
    59    23    65 1   
    60    24    33 1   
    61    24    39 2   
    62    25    40 1   
    63    25    69 1   
    64    25    70 1   
    65    25    71 1   
    66    26    34 1   
    67    26    72 1   
    68    26    73 1   
    69    26    74 1   
    70    27    75 1   
    71    27    76 1   
    72    27    77 1   
    73    28    29 1   
    74    28    78 1   
    75    28    79 1   
    76    28    88 1   
    77    29    30 1   
    78    29    80 1   
    79    29    81 1   
    80    30    31 2   
    81    30    82 1   
    82    31    83 1   
    83    31    84 1   
    84    32    85 1   
    85    33    87 1   
    86    38    88 1   
    87    41    88 2   
    88    42    86 1   
    89    66    87 1   
    90    67    87 1   
    91    68    87 1   
@<TRIPOS>SUBSTRUCTURE
     1 Q0F         1 TEMP              0 ****  ****    0 ROOT
