@<TRIPOS>MOLECULE
Q0F
   88    91     1     0     0
SMALL
No Charge or Current Charge


@<TRIPOS>ATOM
      1 C4          25.4540   -25.3610   -45.7070 ca         1 Q0F      -0.105000
      2 C14         30.6460   -19.6760   -46.8730 c6         1 Q0F       0.334400
      3 C5          24.7810   -25.6670   -44.5100 ca         1 Q0F      -0.036000
      4 C6          24.7670   -27.0060   -44.0510 ca         1 Q0F       0.085000
      5 C11         29.5290   -23.2650   -47.5620 ce         1 Q0F      -0.153000
      6 C7          26.7660   -26.0200   -47.7750 c3         1 Q0F       0.001100
      7 C8          28.0850   -25.3160   -47.4950 c2         1 Q0F      -0.088400
      8 C9          29.0640   -26.1840   -46.7140 c3         1 Q0F      -0.062900
      9 C10         28.3130   -24.0320   -47.8600 ce         1 Q0F      -0.192000
     10 C12         29.6570   -21.9470   -47.8190 c2         1 Q0F      -0.250200
     11 C13         30.8940   -21.1180   -47.5180 c3         1 Q0F       0.207500
     12 C3          26.0290   -26.3770   -46.4900 ca         1 Q0F      -0.061300
     13 C1          25.3370   -28.0350   -44.8320 ca         1 Q0F       0.116100
     14 C17         32.7340   -18.9550   -45.6720 c          1 Q0F       0.718100
     15 C19         31.0120   -20.2900   -44.4590 c6         1 Q0F       0.210300
     16 C2          25.9590   -27.7140   -46.0580 ca         1 Q0F      -0.120000
     17 C20         29.9970   -19.7530   -45.4810 c6         1 Q0F      -0.153400
     18 C22         30.5280   -20.2410   -42.9660 c3         1 Q0F      -0.056700
     19 C23         29.1110   -20.7880   -42.7360 cx         1 Q0F       0.095300
     20 C24         30.6210   -18.8290   -42.3240 c3         1 Q0F      -0.086100
     21 C25         28.6580   -22.2130   -42.9590 cx         1 Q0F       0.091000
     22 C26         27.1610   -22.4200   -43.2600 c3         1 Q0F       0.191300
     23 C27         26.6360   -23.8490   -42.9640 c3         1 Q0F      -0.163400
     24 C28         25.1130   -23.8700   -42.7750 c          1 Q0F       0.611100
     25 C36         25.8500   -30.4460   -45.0750 c3         1 Q0F       0.148900
     26 C37         31.2010   -20.4400   -49.8960 c3         1 Q0F       0.150900
     27 C38         29.6090   -23.2500   -43.5650 c3         1 Q0F      -0.082100
     28 C40         25.7700   -21.3210   -46.5840 c3         1 Q0F      -0.134400
     29 C43         26.1340   -19.8630   -46.9460 c3         1 Q0F      -0.040200
     30 C44         25.0800   -18.8650   -46.5110 c2         1 Q0F      -0.229200
     31 C45         24.2620   -18.1960   -47.3380 c2         1 Q0F      -0.307000
     32 N16         31.8990   -18.9810   -46.7580 ns         1 Q0F      -0.560900
     33 N31         24.2960   -24.6000   -43.6780 n          1 Q0F      -0.240400
     34 O15         31.7240   -21.0870   -48.7160 os         1 Q0F      -0.451000
     35 O18         32.2500   -19.5540   -44.5350 os         1 Q0F      -0.457100
     36 O21         33.8230   -18.4110   -45.7170 o          1 Q0F      -0.540000
     37 O29         28.9840   -21.7230   -41.6380 op         1 Q0F      -0.427000
     38 O30         26.9700   -22.1130   -44.6580 os         1 Q0F      -0.468100
     39 O32         24.6200   -23.2580   -41.8330 o          1 Q0F      -0.591100
     40 O34         25.2840   -29.3350   -44.3570 os         1 Q0F      -0.348100
     41 O41         24.8400   -21.3050   -44.3420 o          1 Q0F      -0.463000
     42 O42         29.8170   -18.8720   -47.6950 oh         1 Q0F      -0.707000
     43 Cl33        24.0560   -27.4060   -42.4800 cl         1 Q0F      -0.161000
     44 H1          25.5260   -24.3270   -46.0350 ha         1 Q0F       0.134000
     45 H2          30.3610   -23.8000   -47.1010 ha         1 Q0F       0.172000
     46 H3          26.1200   -25.3860   -48.3940 hc         1 Q0F       0.059200
     47 H4          26.9470   -26.9180   -48.3780 hc         1 Q0F       0.059200
     48 H5          28.8690   -27.2530   -46.8620 hc         1 Q0F       0.047033
     49 H6          30.1010   -26.0130   -47.0230 hc         1 Q0F       0.047033
     50 H7          28.9930   -25.9810   -45.6390 hc         1 Q0F       0.047033
     51 H8          27.5400   -23.4950   -48.4090 ha         1 Q0F       0.172000
     52 H9          28.8400   -21.3810   -48.2670 ha         1 Q0F       0.193000
     53 H10         31.4630   -21.6770   -46.7670 h1         1 Q0F       0.072700
     54 H11         31.2350   -21.3360   -44.7040 h1         1 Q0F       0.054700
     55 H12         26.4150   -28.4850   -46.6710 ha         1 Q0F       0.130000
     56 H13         29.6480   -18.7610   -45.1660 hc         1 Q0F       0.076700
     57 H14         29.1130   -20.4030   -45.5150 hc         1 Q0F       0.076700
     58 H15         31.2210   -20.8720   -42.3960 hc         1 Q0F       0.080700
     59 H16         28.3350   -20.0230   -42.7900 h1         1 Q0F       0.099700
     60 H17         30.2810   -18.8580   -41.2810 hc         1 Q0F       0.046700
     61 H18         31.6520   -18.4580   -42.3190 hc         1 Q0F       0.046700
     62 H19         29.9980   -18.1050   -42.8620 hc         1 Q0F       0.046700
     63 H20         26.6170   -21.7070   -42.6220 h1         1 Q0F       0.101700
     64 H21         26.9670   -24.5340   -43.7480 hc         1 Q0F       0.084200
     65 H22         27.0740   -24.1740   -42.0140 hc         1 Q0F       0.084200
     66 H23         22.5490   -24.8570   -42.4980 h1         1 Q0F       0.046700
     67 H24         22.5080   -23.4670   -43.6240 h1         1 Q0F       0.046700
     68 H25         22.3200   -25.1280   -44.2490 h1         1 Q0F       0.046700
     69 H26         25.6930   -31.3780   -44.5180 h1         1 Q0F       0.041033
     70 H27         25.3770   -30.5560   -46.0600 h1         1 Q0F       0.041033
     71 H28         26.9300   -30.3120   -45.2150 h1         1 Q0F       0.041033
     72 H29         31.8600   -20.6370   -50.7520 h1         1 Q0F       0.035367
     73 H30         30.2020   -20.8140   -50.1530 h1         1 Q0F       0.035367
     74 H31         31.1520   -19.3530   -49.7690 h1         1 Q0F       0.035367
     75 H32         30.6340   -23.1210   -43.1990 hc         1 Q0F       0.053033
     76 H33         29.3110   -24.2740   -43.3110 hc         1 Q0F       0.053033
     77 H34         29.6250   -23.1710   -44.6570 hc         1 Q0F       0.053033
     78 H35         24.7770   -21.5520   -46.9840 hc         1 Q0F       0.076700
     79 H36         26.5260   -21.9620   -47.0450 hc         1 Q0F       0.076700
     80 H37         26.2780   -19.8040   -48.0320 hc         1 Q0F       0.053200
     81 H38         27.1010   -19.6030   -46.4990 hc         1 Q0F       0.053200
     82 H39         25.0240   -18.7000   -45.4310 ha         1 Q0F       0.172000
     83 H40         23.5260   -17.4840   -46.9610 ha         1 Q0F       0.164500
     84 H41         24.2980   -18.3340   -48.4200 ha         1 Q0F       0.164500
     85 H42         32.2890   -18.5890   -47.6030 hn         1 Q0F       0.337500
     86 H43         29.8550   -17.9710   -47.3090 ho         1 Q0F       0.519000
     87 C35         22.8300   -24.5090   -43.5000 c3         1 Q0F       0.098300
     88 C39         25.7800   -21.5690   -45.0760 c          1 Q0F       0.600100
@<TRIPOS>BOND
     1     1     3 ar  
     2     1    12 ar  
     3     1    44 1   
     4     2    11 1   
     5     2    17 1   
     6     2    32 1   
     7     2    42 1   
     8     3     4 ar  
     9     3    33 1   
    10     4    13 ar  
    11     4    43 1   
    12     5     9 1   
    13     5    10 2   
    14     5    45 1   
    15     6     7 1   
    16     6    12 1   
    17     6    46 1   
    18     6    47 1   
    19     7     8 1   
    20     7     9 2   
    21     8    48 1   
    22     8    49 1   
    23     8    50 1   
    24     9    51 1   
    25    10    11 1   
    26    10    52 1   
    27    11    34 1   
    28    11    53 1   
    29    12    16 ar  
    30    13    16 ar  
    31    13    40 1   
    32    14    32 1   
    33    14    35 1   
    34    14    36 2   
    35    15    17 1   
    36    15    18 1   
    37    15    35 1   
    38    15    54 1   
    39    16    55 1   
    40    17    56 1   
    41    17    57 1   
    42    18    19 1   
    43    18    20 1   
    44    18    58 1   
    45    19    21 1   
    46    19    37 1   
    47    19    59 1   
    48    20    60 1   
    49    20    61 1   
    50    20    62 1   
    51    21    22 1   
    52    21    27 1   
    53    21    37 1   
    54    22    23 1   
    55    22    38 1   
    56    22    63 1   
    57    23    24 1   
    58    23    64 1   
    59    23    65 1   
    60    24    33 1   
    61    24    39 2   
    62    25    40 1   
    63    25    69 1   
    64    25    70 1   
    65    25    71 1   
    66    26    34 1   
    67    26    72 1   
    68    26    73 1   
    69    26    74 1   
    70    27    75 1   
    71    27    76 1   
    72    27    77 1   
    73    28    29 1   
    74    28    78 1   
    75    28    79 1   
    76    28    88 1   
    77    29    30 1   
    78    29    80 1   
    79    29    81 1   
    80    30    31 2   
    81    30    82 1   
    82    31    83 1   
    83    31    84 1   
    84    32    85 1   
    85    33    87 1   
    86    38    88 1   
    87    41    88 2   
    88    42    86 1   
    89    66    87 1   
    90    67    87 1   
    91    68    87 1   
@<TRIPOS>SUBSTRUCTURE
     1 Q0F         1 TEMP              0 ****  ****    0 ROOT
