@<TRIPOS>MOLECULE
Q0G
   60    63     1     0     0
SMALL
abcg2


@<TRIPOS>ATOM
      1 C25          3.4690     1.1390     0.2830 c6         1 Q0G       0.195800
      2 C24          4.4170     0.0030    -0.0530 c6         1 Q0G       0.194800
      3 C23          3.5820    -3.4970    -1.0090 ca         1 Q0G      -0.159500
      4 N3           3.6980    -1.2520    -0.1110 nh         1 Q0G      -0.781400
      5 C22          4.1610    -4.5740    -1.6580 ca         1 Q0G      -0.087000
      6 O4           1.4370     1.5780     3.4960 o          1 Q0G      -0.570500
      7 C20          6.2230    -3.3800    -1.8190 ca         1 Q0G      -0.087000
      8 C18          4.3190    -2.3340    -0.7410 ca         1 Q0G       0.304000
      9 C19          5.6540    -2.2990    -1.1550 ca         1 Q0G      -0.159500
     10 O3           3.2970     3.0230     2.6490 o          1 Q0G      -0.570500
     11 C17          2.9990    -1.5270     1.1360 c6         1 Q0G       0.194800
     12 C15          0.1190     2.4070     0.7120 ca         1 Q0G       0.276000
     13 C16          2.0330    -0.4080     1.4720 c6         1 Q0G       0.195800
     14 N2           2.7830     0.8440     1.5360 n3         1 Q0G      -0.767500
     15 C21          5.4880    -4.5270    -2.0720 ca         1 Q0G      -0.154000
     16 C14         -0.8420     1.6310     1.3500 ca         1 Q0G      -0.159000
     17 C13         -1.8690     1.0370     0.6340 ca         1 Q0G      -0.115000
     18 C4          -1.9640     1.2250    -0.7410 ca         1 Q0G      -0.126000
     19 C5          -4.1760    -0.5110    -0.6160 c3         1 Q0G       0.047600
     20 O1           1.8700     4.1230    -0.7650 o          1 Q0G      -0.689500
     21 N1           1.1730     3.0190     1.4250 nu         1 Q0G      -0.921100
     22 C6          -5.2450    -1.2560    -1.4130 c3         1 Q0G      -0.022100
     23 O2           0.8380     3.6140    -2.6640 o          1 Q0G      -0.689500
     24 C3          -1.0240     2.0370    -1.3700 ca         1 Q0G      -0.049000
     25 C2           0.0170     2.6340    -0.6730 ca         1 Q0G      -0.174600
     26 C7          -6.0810    -2.1050    -0.4950 ca         1 Q0G      -0.074300
     27 C12         -5.7150    -3.4190    -0.2100 ca         1 Q0G      -0.106000
     28 C11         -6.4620    -4.1900     0.6700 ca         1 Q0G      -0.112000
     29 C10         -7.5900    -3.6550     1.2800 ca         1 Q0G      -0.117000
     30 C9          -7.9650    -2.3470     1.0030 ca         1 Q0G      -0.112000
     31 C8          -7.2140    -1.5800     0.1220 ca         1 Q0G      -0.106000
     32 S2           2.1840     2.1320     2.3820 s6         1 Q0G       1.266200
     33 S1          -3.2130     0.5130    -1.7600 ss         1 Q0G      -0.202000
     34 H26          4.0480     2.0570     0.3730 h1         1 Q0G       0.070450
     35 H27          2.7480     1.2640    -0.5330 h1         1 Q0G       0.070450
     36 H24          4.8510     0.2210    -1.0290 h1         1 Q0G       0.040450
     37 H25          5.2370    -0.0190     0.6800 h1         1 Q0G       0.040450
     38 H23          2.5380    -3.5540    -0.7310 ha         1 Q0G       0.115000
     39 H22          3.5610    -5.4540    -1.8550 ha         1 Q0G       0.102000
     40 H20          7.2590    -3.3200    -2.1270 ha         1 Q0G       0.102000
     41 H19          6.2740    -1.4340    -0.9580 ha         1 Q0G       0.115000
     42 H18          2.4260    -2.4480     1.0560 h1         1 Q0G       0.040450
     43 H17          3.7120    -1.6520     1.9640 h1         1 Q0G       0.040450
     44 H16          1.2440    -0.3630     0.7130 h1         1 Q0G       0.070450
     45 H15          1.5750    -0.6200     2.4340 h1         1 Q0G       0.070450
     46 H21          5.9350    -5.3680    -2.5840 ha         1 Q0G       0.104000
     47 H13         -0.8010     1.4830     2.4200 ha         1 Q0G       0.130000
     48 H12         -2.5910     0.4410     1.1730 ha         1 Q0G       0.097000
     49 H3          -4.6410     0.1210     0.1430 h1         1 Q0G       0.063700
     50 H4          -3.5170    -1.2220    -0.1150 h1         1 Q0G       0.063700
     51 H14          1.6920     3.6290     0.7370 hn         1 Q0G       0.574000
     52 H5          -5.8800    -0.5390    -1.9380 hc         1 Q0G       0.058200
     53 H6          -4.7670    -1.8790    -2.1710 hc         1 Q0G       0.058200
     54 H2          -1.0910     2.2130    -2.4370 ha         1 Q0G       0.145000
     55 H11         -4.8380    -3.8450    -0.6850 ha         1 Q0G       0.114000
     56 H10         -6.1660    -5.2100     0.8770 ha         1 Q0G       0.108000
     57 H9          -8.1730    -4.2560     1.9660 ha         1 Q0G       0.106000
     58 H8          -8.8440    -1.9230     1.4700 ha         1 Q0G       0.108000
     59 H7          -7.5150    -0.5600    -0.0920 ha         1 Q0G       0.114000
     60 C1           0.9870     3.5270    -1.4410 c          1 Q0G       0.717600
@<TRIPOS>BOND
     1     1     2 1   
     2     1    14 1   
     3     1    34 1   
     4     1    35 1   
     5     2     4 1   
     6     2    36 1   
     7     2    37 1   
     8     3     5 ar  
     9     3     8 ar  
    10     3    38 1   
    11     4     8 1   
    12     4    11 1   
    13     5    15 ar  
    14     5    39 1   
    15     6    32 2   
    16     7     9 ar  
    17     7    15 ar  
    18     7    40 1   
    19     8     9 ar  
    20     9    41 1   
    21    10    32 2   
    22    11    13 1   
    23    11    42 1   
    24    11    43 1   
    25    12    16 ar  
    26    12    21 1   
    27    12    25 ar  
    28    13    14 1   
    29    13    44 1   
    30    13    45 1   
    31    14    32 1   
    32    15    46 1   
    33    16    17 ar  
    34    16    47 1   
    35    17    18 ar  
    36    17    48 1   
    37    18    24 ar  
    38    18    33 1   
    39    19    22 1   
    40    19    33 1   
    41    19    49 1   
    42    19    50 1   
    43    20    60 1   
    44    21    32 1   
    45    21    51 1   
    46    22    26 1   
    47    22    52 1   
    48    22    53 1   
    49    23    60 1   
    50    24    25 ar  
    51    24    54 1   
    52    25    60 1   
    53    26    27 ar  
    54    26    31 ar  
    55    27    28 ar  
    56    27    55 1   
    57    28    29 ar  
    58    28    56 1   
    59    29    30 ar  
    60    29    57 1   
    61    30    31 ar  
    62    30    58 1   
    63    31    59 1   
@<TRIPOS>SUBSTRUCTURE
     1 Q0G         1 TEMP              0 ****  ****    0 ROOT
