@<TRIPOS>MOLECULE
Q0G
   60    63     1     0     0
SMALL
No Charge or Current Charge


@<TRIPOS>ATOM
      1 C25          3.4580     1.2620     0.4330 c6         1 Q0G       0.195800
      2 C24          4.1810    -0.0400    -0.0380 c6         1 Q0G       0.194800
      3 C23          2.4960    -3.3170    -0.8960 ca         1 Q0G      -0.159500
      4 N3           3.3270    -1.2590     0.1240 nh         1 Q0G      -0.781400
      5 C22          2.7020    -4.4850    -1.6510 ca         1 Q0G      -0.087000
      6 O4           1.5490     2.2660     3.6930 o          1 Q0G      -0.570500
      7 C20          5.0480    -3.9000    -1.9050 ca         1 Q0G      -0.087000
      8 C18          3.5590    -2.4300    -0.6360 ca         1 Q0G       0.304000
      9 C19          4.8370    -2.7320    -1.1500 ca         1 Q0G      -0.159500
     10 O3           3.5160     3.4940     2.6650 o          1 Q0G      -0.570500
     11 C17          2.7190    -1.3590     1.4890 c6         1 Q0G       0.194800
     12 C15          0.3690     2.7230     0.6720 ca         1 Q0G       0.276000
     13 C16          2.0270    -0.0320     1.9380 c6         1 Q0G       0.195800
     14 N2           2.9270     1.1530     1.8220 n3         1 Q0G      -0.767500
     15 C21          3.9800    -4.7760    -2.1550 ca         1 Q0G      -0.154000
     16 C14         -0.6440     1.9880     1.3170 ca         1 Q0G      -0.159000
     17 C13         -1.6720     1.3750     0.5880 ca         1 Q0G      -0.115000
     18 C4          -1.7090     1.5070    -0.8100 ca         1 Q0G      -0.126000
     19 C5          -3.7940    -0.5080    -0.7190 c3         1 Q0G       0.047600
     20 O1           2.3620     4.0980    -0.9260 o          1 Q0G      -0.689500
     21 N1           1.3720     3.3120     1.4260 nu         1 Q0G      -0.921100
     22 C6          -4.8240    -1.3360    -1.5090 c3         1 Q0G      -0.022100
     23 O2           1.1060     4.0100    -2.6630 o          1 Q0G      -0.689500
     24 C3          -0.7260     2.2740    -1.4570 ca         1 Q0G      -0.049000
     25 C2           0.3200     2.9000    -0.7350 ca         1 Q0G      -0.174600
     26 C7          -5.5000    -2.3840    -0.6340 ca         1 Q0G      -0.074300
     27 C12         -4.9190    -3.6570    -0.4750 ca         1 Q0G      -0.106000
     28 C11         -5.5380    -4.6230     0.3370 ca         1 Q0G      -0.112000
     29 C10         -6.7420    -4.3200     0.9960 ca         1 Q0G      -0.117000
     30 C9          -7.3250    -3.0510     0.8430 ca         1 Q0G      -0.112000
     31 C8          -6.7050    -2.0850     0.0310 ca         1 Q0G      -0.106000
     32 S2           2.3650     2.6060     2.5270 s6         1 Q0G       1.266200
     33 S1          -2.9900     0.7460    -1.8130 ss         1 Q0G      -0.202000
     34 H26          4.1700     2.0960     0.3500 h1         1 Q0G       0.070450
     35 H27          2.6430     1.4610    -0.2760 h1         1 Q0G       0.070450
     36 H24          4.4650     0.0870    -1.0930 h1         1 Q0G       0.040450
     37 H25          5.1080    -0.1570     0.5420 h1         1 Q0G       0.040450
     38 H23          1.5010    -3.0940    -0.5220 ha         1 Q0G       0.115000
     39 H22          1.8720    -5.1610    -1.8470 ha         1 Q0G       0.102000
     40 H20          6.0390    -4.1250    -2.2940 ha         1 Q0G       0.102000
     41 H19          5.6770    -2.0720    -0.9590 ha         1 Q0G       0.115000
     42 H18          1.9740    -2.1660     1.5280 h1         1 Q0G       0.040450
     43 H17          3.5020    -1.6090     2.2190 h1         1 Q0G       0.040450
     44 H16          1.1310     0.1020     1.3180 h1         1 Q0G       0.070450
     45 H15          1.6840    -0.1680     2.9740 h1         1 Q0G       0.070450
     46 H21          4.1420    -5.6800    -2.7390 ha         1 Q0G       0.104000
     47 H13         -0.6390     1.8880     2.3980 ha         1 Q0G       0.130000
     48 H12         -2.4300     0.8140     1.1240 ha         1 Q0G       0.097000
     49 H3          -4.2970     0.0040     0.1110 h1         1 Q0G       0.063700
     50 H4          -3.0230    -1.1730    -0.3090 h1         1 Q0G       0.063700
     51 H14          2.0600     3.7780     0.8360 hn         1 Q0G       0.574000
     52 H5          -5.5720    -0.6600    -1.9390 hc         1 Q0G       0.058200
     53 H6          -4.3210    -1.8180    -2.3560 hc         1 Q0G       0.058200
     54 H2          -0.7810     2.3790    -2.5390 ha         1 Q0G       0.145000
     55 H11         -3.9860    -3.8990    -0.9800 ha         1 Q0G       0.114000
     56 H10         -5.0850    -5.6050     0.4560 ha         1 Q0G       0.108000
     57 H9          -7.2210    -5.0670     1.6250 ha         1 Q0G       0.106000
     58 H8          -8.2560    -2.8150     1.3540 ha         1 Q0G       0.108000
     59 H7          -7.1620    -1.1040    -0.0800 ha         1 Q0G       0.114000
     60 C1           1.3410     3.7330    -1.4960 c          1 Q0G       0.717600
@<TRIPOS>BOND
     1     1     2 1   
     2     1    14 1   
     3     1    34 1   
     4     1    35 1   
     5     2     4 1   
     6     2    36 1   
     7     2    37 1   
     8     3     5 ar  
     9     3     8 ar  
    10     3    38 1   
    11     4     8 1   
    12     4    11 1   
    13     5    15 ar  
    14     5    39 1   
    15     6    32 2   
    16     7     9 ar  
    17     7    15 ar  
    18     7    40 1   
    19     8     9 ar  
    20     9    41 1   
    21    10    32 2   
    22    11    13 1   
    23    11    42 1   
    24    11    43 1   
    25    12    16 ar  
    26    12    21 1   
    27    12    25 ar  
    28    13    14 1   
    29    13    44 1   
    30    13    45 1   
    31    14    32 1   
    32    15    46 1   
    33    16    17 ar  
    34    16    47 1   
    35    17    18 ar  
    36    17    48 1   
    37    18    24 ar  
    38    18    33 1   
    39    19    22 1   
    40    19    33 1   
    41    19    49 1   
    42    19    50 1   
    43    20    60 1   
    44    21    32 1   
    45    21    51 1   
    46    22    26 1   
    47    22    52 1   
    48    22    53 1   
    49    23    60 1   
    50    24    25 ar  
    51    24    54 1   
    52    25    60 1   
    53    26    27 ar  
    54    26    31 ar  
    55    27    28 ar  
    56    27    55 1   
    57    28    29 ar  
    58    28    56 1   
    59    29    30 ar  
    60    29    57 1   
    61    30    31 ar  
    62    30    58 1   
    63    31    59 1   
@<TRIPOS>SUBSTRUCTURE
     1 Q0G         1 TEMP              0 ****  ****    0 ROOT
