@<TRIPOS>MOLECULE
Q0H
   33    35     1     0     0
SMALL
No Charge or Current Charge


@<TRIPOS>ATOM
      1 C10         19.3340    15.3430    34.6770 cc         1 Q0H      -0.308500
      2 N12         19.9360    14.8580    36.7220 na         1 Q0H       0.133800
      3 C13         20.5760    14.2360    37.8960 c3         1 Q0H       0.136900
      4 C15         22.7790    15.4760    37.5180 ca         1 Q0H      -0.094000
      5 C17         24.9240    14.3640    37.8270 ca         1 Q0H       0.147000
      6 C20         22.8540    13.1400    38.2050 ca         1 Q0H      -0.082000
      7 C02         19.4940    14.6030    30.9610 ca         1 Q0H       0.430900
      8 C03         19.4750    14.3260    32.3380 ca         1 Q0H      -0.238000
      9 C04         19.5500    12.9760    32.8110 cg         1 Q0H       0.355000
     10 N05         19.6170    11.8710    33.1810 n1         1 Q0H      -0.493000
     11 C06         19.3070    15.4280    33.2130 ca         1 Q0H       0.319500
     12 N07         19.1910    16.6790    32.7190 nb         1 Q0H      -0.242000
     13 C08         19.2240    16.8240    31.3820 ca         1 Q0H       0.198900
     14 N09         19.3720    15.8420    30.4750 nb         1 Q0H      -0.280000
     15 C11         20.1470    14.5020    35.3850 cd         1 Q0H      -0.117000
     16 C14         22.1040    14.2860    37.8690 ca         1 Q0H      -0.106300
     17 C16         24.1830    15.5130    37.4960 ca         1 Q0H       0.131000
     18 C19         24.2610    13.1780    38.1820 ca         1 Q0H      -0.130000
     19 F21         24.8150    16.6600    37.1560 f          1 Q0H      -0.157000
     20 N22         19.0620    15.9310    36.8620 nd         1 Q0H      -0.527800
     21 C23         18.7420    16.2030    35.6130 cc         1 Q0H       0.303900
     22 H1          20.2190    14.7410    38.8010 h1         1 Q0H       0.074700
     23 H2          20.2390    13.1930    37.9470 h1         1 Q0H       0.074700
     24 H3          22.2200    16.3740    37.2640 ha         1 Q0H       0.143000
     25 H4          22.3490    12.2160    38.4820 ha         1 Q0H       0.123000
     26 H5          19.8250    13.9510    29.0480 hn         1 Q0H       0.508000
     27 H6          19.9650    12.7210    30.2570 hn         1 Q0H       0.508000
     28 H7          19.1270    17.8380    30.9960 h5         1 Q0H       0.050100
     29 H8          20.8500    13.7320    35.0860 h4         1 Q0H       0.166000
     30 H9          24.8360    12.2920    38.4400 ha         1 Q0H       0.139000
     31 H10         18.0810    17.0370    35.4130 h4         1 Q0H       0.059100
     32 F18         26.2770    14.3920    37.8080 f          1 Q0H      -0.157000
     33 N01         19.6300    13.6480    30.0000 nv         1 Q0H      -1.068900
@<TRIPOS>BOND
     1     1    11 1   
     2     1    15 2   
     3     1    21 1   
     4     2     3 1   
     5     2    15 1   
     6     2    20 1   
     7     3    16 1   
     8     3    22 1   
     9     3    23 1   
    10     4    16 ar  
    11     4    17 ar  
    12     4    24 1   
    13     5    17 ar  
    14     5    18 ar  
    15     5    32 1   
    16     6    16 ar  
    17     6    18 ar  
    18     6    25 1   
    19     7     8 ar  
    20     7    14 ar  
    21     7    33 1   
    22     8     9 1   
    23     8    11 ar  
    24     9    10 3   
    25    11    12 ar  
    26    12    13 ar  
    27    13    14 ar  
    28    13    28 1   
    29    15    29 1   
    30    17    19 1   
    31    18    30 1   
    32    20    21 2   
    33    21    31 1   
    34    26    33 1   
    35    27    33 1   
@<TRIPOS>SUBSTRUCTURE
     1 Q0H         1 TEMP              0 ****  ****    0 ROOT
