@<TRIPOS>MOLECULE
Q0H
   33    35     1     0     0
SMALL
bcc


@<TRIPOS>ATOM
      1 C10         19.8340    15.3330    34.3640 cc         1 Q0H      -0.373800
      2 N12         20.3190    14.8880    36.4470 na         1 Q0H       0.112400
      3 C13         20.6860    14.2290    37.6860 c3         1 Q0H       0.107600
      4 C15         22.5830    15.3320    38.9110 ca         1 Q0H      -0.112000
      5 C17         24.8620    14.7230    38.4670 ca         1 Q0H       0.111900
      6 C20         23.0930    13.6230    37.3020 ca         1 Q0H      -0.100000
      7 C02         19.0170    14.3200    30.8060 ca         1 Q0H       0.759200
      8 C03         19.3140    14.1630    32.1870 ca         1 Q0H      -0.368600
      9 C04         19.3920    12.8570    32.7200 cg         1 Q0H       0.265800
     10 N05         19.4450    11.7720    33.1100 n1         1 Q0H      -0.403800
     11 C06         19.5120    15.3190    32.9510 ca         1 Q0H       0.647800
     12 N07         19.4070    16.5230    32.3800 nb         1 Q0H      -0.768000
     13 C08         19.1160    16.5590    31.0920 ca         1 Q0H       0.724900
     14 N09         18.9190    15.5430    30.2770 nb         1 Q0H      -0.806000
     15 C11         20.0630    14.3080    35.2730 cd         1 Q0H      -0.084300
     16 C14         22.1540    14.3920    37.9800 ca         1 Q0H      -0.106300
     17 C16         23.9330    15.4890    39.1490 ca         1 Q0H       0.095900
     18 C19         24.4490    13.7870    37.5420 ca         1 Q0H      -0.148000
     19 F21         24.3620    16.3870    40.0420 f          1 Q0H      -0.121900
     20 N22         20.2870    16.2210    36.3880 nd         1 Q0H      -0.527800
     21 C23         19.9940    16.5050    35.1410 cc         1 Q0H       0.369200
     22 H1          20.0760    14.6440    38.4870 h1         1 Q0H       0.074700
     23 H2          20.4260    13.1760    37.5810 h1         1 Q0H       0.074700
     24 H3          21.8720    15.9430    39.4540 ha         1 Q0H       0.161000
     25 H4          22.7700    12.8840    36.5790 ha         1 Q0H       0.141000
     26 H5          18.6230    13.4460    29.0260 hn         1 Q0H       0.452800
     27 H6          18.8960    12.3270    30.3060 hn         1 Q0H       0.452800
     28 H7          19.0300    17.5460    30.6500 h5         1 Q0H       0.050100
     29 H8          20.0660    13.2360    35.1790 h4         1 Q0H       0.184000
     30 H9          25.1840    13.1890    37.0180 ha         1 Q0H       0.157000
     31 H10         19.8950    17.5290    34.8170 h4         1 Q0H       0.059100
     32 F18         26.1620    14.9020    38.7170 f          1 Q0H      -0.121900
     33 N01         18.8240    13.2820    29.9990 nv         1 Q0H      -0.958500
@<TRIPOS>BOND
     1     1    11 1   
     2     1    15 2   
     3     1    21 1   
     4     2     3 1   
     5     2    15 1   
     6     2    20 1   
     7     3    16 1   
     8     3    22 1   
     9     3    23 1   
    10     4    16 ar  
    11     4    17 ar  
    12     4    24 1   
    13     5    17 ar  
    14     5    18 ar  
    15     5    32 1   
    16     6    16 ar  
    17     6    18 ar  
    18     6    25 1   
    19     7     8 ar  
    20     7    14 ar  
    21     7    33 1   
    22     8     9 1   
    23     8    11 ar  
    24     9    10 3   
    25    11    12 ar  
    26    12    13 ar  
    27    13    14 ar  
    28    13    28 1   
    29    15    29 1   
    30    17    19 1   
    31    18    30 1   
    32    20    21 2   
    33    21    31 1   
    34    26    33 1   
    35    27    33 1   
@<TRIPOS>SUBSTRUCTURE
     1 Q0H         1 TEMP              0 ****  ****    0 ROOT
