@<TRIPOS>MOLECULE
Q0I
   47    50     1     0     0
SMALL
No Charge or Current Charge


@<TRIPOS>ATOM
      1 N1           6.3860    -0.4190    17.4060 nb         1 Q0I      -0.654000
      2 C4           9.5880    -0.6690    22.6530 c6         1 Q0I      -0.072400
      3 C5           8.5930    -0.5450    23.8440 c6         1 Q0I      -0.110400
      4 C6           9.3410    -0.5880    25.1870 c6         1 Q0I       0.161600
      5 C7          11.2000     0.6150    24.2000 ca         1 Q0I       0.146100
      6 C8          10.9240     0.0660    22.9230 ca         1 Q0I      -0.136300
      7 C10         13.1100     0.8520    22.1550 ca         1 Q0I       0.092000
      8 C13          6.9630    -0.4190    19.7740 ca         1 Q0I      -0.096000
      9 C15          5.8380     1.1710    21.3080 ca         1 Q0I      -0.105000
     10 C17          4.1900     2.7200    20.4040 ca         1 Q0I      -0.109000
     11 C20          5.5160     0.5870    17.6490 ca         1 Q0I       0.369900
     12 C21          7.0910    -0.9030    18.4530 ca         1 Q0I       0.339900
     13 Cl          14.3150     0.9840    20.8800 cl         1 Q0I      -0.213000
     14 C11         13.3520     1.4360    23.4090 ca         1 Q0I      -0.065000
     15 C12         12.3970     1.3120    24.4310 ca         1 Q0I      -0.136000
     16 O2          10.3160     0.4710    25.2460 os         1 Q0I      -0.345100
     17 C9          11.9080     0.1660    21.9140 ca         1 Q0I      -0.049000
     18 C3           8.8910    -0.2750    21.3040 c          1 Q0I       0.614100
     19 O1           9.2510     0.7360    20.7100 o          1 Q0I      -0.527100
     20 N            7.7730    -1.0030    20.8210 n          1 Q0I      -0.235000
     21 C2           7.4800    -2.3210    21.2060 c          1 Q0I       0.619100
     22 O            8.3540    -3.1630    21.3580 o          1 Q0I      -0.553100
     23 C1           6.0160    -2.6500    21.5440 c3         1 Q0I      -0.155400
     24 C            5.3280    -3.4660    20.4250 c3         1 Q0I      -0.085100
     25 C19          5.3130     1.1400    18.9280 ca         1 Q0I      -0.095000
     26 C14          6.0490     0.6310    20.0210 ca         1 Q0I      -0.002000
     27 C18          4.3880     2.1840    19.1200 ca         1 Q0I      -0.077000
     28 C16          4.9130     2.2120    21.4960 ca         1 Q0I      -0.085000
     29 H1           9.8070    -1.7400    22.6110 hc         1 Q0I       0.090700
     30 H2           8.0550     0.4110    23.7840 hc         1 Q0I       0.069700
     31 H3           7.8340    -1.3380    23.8150 hc         1 Q0I       0.069700
     32 H4           8.6370    -0.4740    26.0230 h1         1 Q0I       0.059700
     33 H5           9.8560    -1.5530    25.3000 h1         1 Q0I       0.059700
     34 H6           6.3780     0.7900    22.1680 ha         1 Q0I       0.118000
     35 H7           3.4740     3.5260    20.5520 ha         1 Q0I       0.120000
     36 H8           4.9610     0.9590    16.7880 h4         1 Q0I       0.024100
     37 H9           7.7880    -1.7100    18.2270 h4         1 Q0I       0.031100
     38 H10         14.2830     1.9680    23.5910 ha         1 Q0I       0.132000
     39 H11         12.5900     1.7420    25.4110 ha         1 Q0I       0.133000
     40 H12         11.7420    -0.2780    20.9350 ha         1 Q0I       0.134000
     41 H13          5.4450    -1.7250    21.6820 hc         1 Q0I       0.070700
     42 H14          5.9930    -3.2430    22.4650 hc         1 Q0I       0.070700
     43 H15          4.2980    -3.7120    20.7100 hc         1 Q0I       0.047700
     44 H16          5.2930    -2.8990    19.4870 hc         1 Q0I       0.047700
     45 H17          5.8640    -4.4050    20.2420 hc         1 Q0I       0.047700
     46 H18          3.8210     2.5790    18.2790 ha         1 Q0I       0.121000
     47 H19          4.7550     2.6250    22.4900 ha         1 Q0I       0.117000
@<TRIPOS>BOND
     1     1    11 ar  
     2     1    12 ar  
     3     2     3 1   
     4     2     6 1   
     5     2    18 1   
     6     2    29 1   
     7     3     4 1   
     8     3    30 1   
     9     3    31 1   
    10     4    16 1   
    11     4    32 1   
    12     4    33 1   
    13     5     6 ar  
    14     5    15 ar  
    15     5    16 1   
    16     6    17 ar  
    17     7    13 1   
    18     7    14 ar  
    19     7    17 ar  
    20     8    12 ar  
    21     8    20 1   
    22     8    26 ar  
    23     9    26 ar  
    24     9    28 ar  
    25     9    34 1   
    26    10    27 ar  
    27    10    28 ar  
    28    10    35 1   
    29    11    25 ar  
    30    11    36 1   
    31    12    37 1   
    32    14    15 ar  
    33    14    38 1   
    34    15    39 1   
    35    17    40 1   
    36    18    19 2   
    37    18    20 1   
    38    20    21 1   
    39    21    22 2   
    40    21    23 1   
    41    23    24 1   
    42    23    41 1   
    43    23    42 1   
    44    24    43 1   
    45    24    44 1   
    46    24    45 1   
    47    25    26 ar  
    48    25    27 ar  
    49    27    46 1   
    50    28    47 1   
@<TRIPOS>SUBSTRUCTURE
     1 Q0I         1 TEMP              0 ****  ****    0 ROOT
