@<TRIPOS>MOLECULE
Q0I
   47    50     1     0     0
SMALL
abcg2


@<TRIPOS>ATOM
      1 N1           6.5780     0.1850    17.6440 nb         1 Q0I      -0.654000
      2 C4           9.1350    -0.0370    23.0740 c6         1 Q0I      -0.072400
      3 C5           8.6420     1.0100    24.0870 c6         1 Q0I      -0.110400
      4 C6           9.4370     0.8690    25.3660 c6         1 Q0I       0.161600
      5 C7          11.3970     0.5450    24.0550 ca         1 Q0I       0.146100
      6 C8          10.6520    -0.0430    23.0240 ca         1 Q0I      -0.136300
      7 C10         12.7190    -0.6080    21.9160 ca         1 Q0I       0.092000
      8 C13          6.9050    -0.1270    20.0000 ca         1 Q0I      -0.096000
      9 C15          5.2210     0.7690    21.6170 ca         1 Q0I      -0.105000
     10 C17          3.3160     1.9690    20.7190 ca         1 Q0I      -0.109000
     11 C20          5.4640     0.8330    17.9000 ca         1 Q0I       0.369900
     12 C21          7.2940    -0.2810    18.6980 ca         1 Q0I       0.339900
     13 CL          13.5480    -1.3510    20.5590 cl         1 Q0I      -0.213000
     14 C11         13.4600    -0.0130    22.9280 ca         1 Q0I      -0.065000
     15 C12         12.7920     0.5610    23.9960 ca         1 Q0I      -0.136000
     16 O2          10.8310     1.1400    25.1410 os         1 Q0I      -0.345100
     17 C9          11.3360    -0.6240    21.9570 ca         1 Q0I      -0.049000
     18 C3           8.5460     0.2930    21.7110 c          1 Q0I       0.614100
     19 O1           8.6820     1.3950    21.2210 o          1 Q0I      -0.527100
     20 N            7.7290    -0.6500    21.0570 n          1 Q0I      -0.235000
     21 C2           7.7500    -2.0400    21.2880 c          1 Q0I       0.619100
     22 O            8.6810    -2.5750    21.8570 o          1 Q0I      -0.553100
     23 C1           6.5720    -2.8400    20.7840 c3         1 Q0I      -0.155400
     24 C            6.9420    -3.7060    19.5730 c3         1 Q0I      -0.085100
     25 C19          4.9640     1.0670    19.2050 ca         1 Q0I      -0.095000
     26 C14          5.7080     0.5650    20.3080 ca         1 Q0I      -0.002000
     27 C18          3.7620     1.7730    19.4370 ca         1 Q0I      -0.077000
     28 C16          4.0500     1.4600    21.8120 ca         1 Q0I      -0.085000
     29 H1           8.7950    -1.0160    23.3990 hc         1 Q0I       0.090700
     30 H2           8.7720     2.0150    23.6860 hc         1 Q0I       0.069700
     31 H3           7.5820     0.8590    24.2950 hc         1 Q0I       0.069700
     32 H4           9.1210     1.5910    26.1150 h1         1 Q0I       0.059700
     33 H5           9.3410    -0.1400    25.7810 h1         1 Q0I       0.059700
     34 H6           5.7690     0.3760    22.4620 ha         1 Q0I       0.118000
     35 H7           2.3970     2.5110    20.9000 ha         1 Q0I       0.120000
     36 H8           4.9000     1.2070    17.0510 h4         1 Q0I       0.024100
     37 H9           8.2200    -0.7950    18.4680 h4         1 Q0I       0.031100
     38 H10         14.5410    -0.0010    22.8870 ha         1 Q0I       0.132000
     39 H11         13.3420     1.0290    24.8030 ha         1 Q0I       0.133000
     40 H12         10.7810    -1.0930    21.1560 ha         1 Q0I       0.134000
     41 H13          5.7230    -2.2010    20.5520 hc         1 Q0I       0.070700
     42 H14          6.2880    -3.4860    21.6170 hc         1 Q0I       0.070700
     43 H15          6.0970    -4.3380    19.3000 hc         1 Q0I       0.047700
     44 H16          7.1990    -3.0900    18.7110 hc         1 Q0I       0.047700
     45 H17          7.7920    -4.3480    19.8040 hc         1 Q0I       0.047700
     46 H18          3.2050     2.1530    18.5890 ha         1 Q0I       0.121000
     47 H19          3.6810     1.6160    22.8180 ha         1 Q0I       0.117000
@<TRIPOS>BOND
     1     1    11 ar  
     2     1    12 ar  
     3     2     3 1   
     4     2     6 1   
     5     2    18 1   
     6     2    29 1   
     7     3     4 1   
     8     3    30 1   
     9     3    31 1   
    10     4    16 1   
    11     4    32 1   
    12     4    33 1   
    13     5     6 ar  
    14     5    15 ar  
    15     5    16 1   
    16     6    17 ar  
    17     7    13 1   
    18     7    14 ar  
    19     7    17 ar  
    20     8    12 ar  
    21     8    20 1   
    22     8    26 ar  
    23     9    26 ar  
    24     9    28 ar  
    25     9    34 1   
    26    10    27 ar  
    27    10    28 ar  
    28    10    35 1   
    29    11    25 ar  
    30    11    36 1   
    31    12    37 1   
    32    14    15 ar  
    33    14    38 1   
    34    15    39 1   
    35    17    40 1   
    36    18    19 2   
    37    18    20 1   
    38    20    21 1   
    39    21    22 2   
    40    21    23 1   
    41    23    24 1   
    42    23    41 1   
    43    23    42 1   
    44    24    43 1   
    45    24    44 1   
    46    24    45 1   
    47    25    26 ar  
    48    25    27 ar  
    49    27    46 1   
    50    28    47 1   
@<TRIPOS>SUBSTRUCTURE
     1 Q0I         1 TEMP              0 ****  ****    0 ROOT
