@<TRIPOS>MOLECULE
Q0J
   37    40     1     0     0
SMALL
abcg2


@<TRIPOS>ATOM
      1 CAA         -3.2800     1.8570     0.0730 cc         1 Q0J      -0.083000
      2 CAB         -4.4510     1.1670     0.0680 cd         1 Q0J      -0.116300
      3 CAC         -4.3980    -0.2550     0.0290 cd         1 Q0J      -0.088000
      4 CAD         -3.2100    -0.9220     0.0130 cc         1 Q0J      -0.096000
      5 CAE         -2.0080    -0.1840     0.0380 cc         1 Q0J      -0.074000
      6 CAG         -0.6410    -0.4730     0.0080 cd         1 Q0J      -0.250800
      7 CAH         -0.0200     0.7900     0.0150 cd         1 Q0J       0.454200
      8 CAJ         -5.7690     1.8780     0.0970 c3         1 Q0J      -0.038800
      9 CAK          1.4110     1.1150     0.0270 ca         1 Q0J      -0.123900
     10 CAL          1.8830     2.2210    -0.6800 ca         1 Q0J      -0.057500
     11 CAM          2.3160     0.3570     0.7680 ca         1 Q0J      -0.057500
     12 CAN          3.6630     0.6810     0.7970 ca         1 Q0J      -0.159000
     13 CAO          4.0940     1.7790     0.0780 ca         1 Q0J       0.179000
     14 CAP          3.2260     2.5590    -0.6620 ca         1 Q0J      -0.159000
     15 CAR         -0.0460    -1.8030    -0.0770 ca         1 Q0J       0.042200
     16 CAS          0.9880    -2.0900    -0.9700 ca         1 Q0J      -0.163500
     17 CAT          1.5060    -3.3730    -1.0160 ca         1 Q0J       0.332900
     18 CAV          0.0840    -4.1060     0.5880 ca         1 Q0J       0.332900
     19 CAW         -0.4980    -2.8550     0.7190 ca         1 Q0J      -0.163500
     20 FAQ          5.3960     2.1010     0.1020 f          1 Q0J      -0.178000
     21 NAF         -2.0970     1.1830     0.0520 na         1 Q0J       0.333400
     22 NAI         -0.9080     1.7790     0.0450 nc         1 Q0J      -0.579100
     23 NAU          1.0710    -4.3750    -0.2590 nb         1 Q0J      -0.667000
     24 H2          -5.3240    -0.8160     0.0100 ha         1 Q0J       0.125000
     25 H3          -3.1750    -2.0010    -0.0220 ha         1 Q0J       0.139000
     26 H6          -6.3680     1.6250    -0.7790 hc         1 Q0J       0.048700
     27 H7          -6.3460     1.5910     0.9760 hc         1 Q0J       0.048700
     28 H8          -5.6410     2.9590     0.1160 hc         1 Q0J       0.048700
     29 H9           1.1950     2.8210    -1.2620 ha         1 Q0J       0.128000
     30 H10          1.9710    -0.4910     1.3450 ha         1 Q0J       0.128000
     31 H11          4.3610     0.0940     1.3790 ha         1 Q0J       0.133500
     32 H12          3.5910     3.4150    -1.2140 ha         1 Q0J       0.133500
     33 H13          1.3820    -1.3300    -1.6310 ha         1 Q0J       0.126000
     34 H14          2.3110    -3.6010    -1.7080 h4         1 Q0J       0.017600
     35 H15         -0.2620    -4.9260     1.2060 h4         1 Q0J       0.017600
     36 H16         -1.2800    -2.7070     1.4520 ha         1 Q0J       0.126000
     37 H1          -3.2070     2.9350     0.0910 h4         1 Q0J       0.161000
@<TRIPOS>BOND
     1     1     2 2   
     2     1    21 1   
     3     1    37 1   
     4     2     3 1   
     5     2     8 1   
     6     3     4 2   
     7     3    24 1   
     8     4     5 1   
     9     4    25 1   
    10     5     6 2   
    11     5    21 1   
    12     6     7 1   
    13     6    15 1   
    14     7     9 1   
    15     7    22 2   
    16     8    26 1   
    17     8    27 1   
    18     8    28 1   
    19     9    10 ar  
    20     9    11 ar  
    21    10    14 ar  
    22    10    29 1   
    23    11    12 ar  
    24    11    30 1   
    25    12    13 ar  
    26    12    31 1   
    27    13    14 ar  
    28    13    20 1   
    29    14    32 1   
    30    15    16 ar  
    31    15    19 ar  
    32    16    17 ar  
    33    16    33 1   
    34    17    23 ar  
    35    17    34 1   
    36    18    19 ar  
    37    18    23 ar  
    38    18    35 1   
    39    19    36 1   
    40    21    22 1   
@<TRIPOS>SUBSTRUCTURE
     1 Q0J         1 TEMP              0 ****  ****    0 ROOT
