@<TRIPOS>MOLECULE
Q0J
   37    40     1     0     0
SMALL
No Charge or Current Charge


@<TRIPOS>ATOM
      1 CAA         -3.3080     1.9300     0.1220 cc         1 Q0J      -0.083000
      2 CAB         -4.4720     1.1480     0.1480 cd         1 Q0J      -0.116300
      3 CAC         -4.4200    -0.2990     0.0640 cd         1 Q0J      -0.088000
      4 CAD         -3.2090    -0.9400    -0.0270 cc         1 Q0J      -0.096000
      5 CAE         -2.0490    -0.1250    -0.0170 cc         1 Q0J      -0.074000
      6 CAG         -0.7140    -0.4220    -0.1360 cd         1 Q0J      -0.250800
      7 CAH         -0.0590     0.8600    -0.0930 cd         1 Q0J       0.454200
      8 CAJ         -5.8220     1.8120     0.2500 c3         1 Q0J      -0.038800
      9 CAK          1.3930     1.1170    -0.0670 ca         1 Q0J      -0.123900
     10 CAL          1.9490     2.1470    -0.8570 ca         1 Q0J      -0.057500
     11 CAM          2.2300     0.4010     0.8160 ca         1 Q0J      -0.057500
     12 CAN          3.6080     0.6740     0.8680 ca         1 Q0J      -0.159000
     13 CAO          4.1530     1.6780     0.0560 ca         1 Q0J       0.179000
     14 CAP          3.3280     2.4190    -0.8020 ca         1 Q0J      -0.159000
     15 CAR         -0.0780    -1.7560    -0.1460 ca         1 Q0J       0.042200
     16 CAS          1.1190    -1.9840    -0.8500 ca         1 Q0J      -0.163500
     17 CAT          1.6990    -3.2630    -0.8450 ca         1 Q0J       0.332900
     18 CAV          0.0150    -4.0990     0.4990 ca         1 Q0J       0.332900
     19 CAW         -0.6310    -2.8530     0.5420 ca         1 Q0J      -0.163500
     20 FAQ          5.4770     1.9410     0.1090 f          1 Q0J      -0.178000
     21 NAF         -2.0960     1.2430     0.0220 na         1 Q0J       0.333400
     22 NAI         -0.8960     1.8900    -0.0310 nc         1 Q0J      -0.579100
     23 NAU          1.1620    -4.3120    -0.1830 nb         1 Q0J      -0.667000
     24 H2          -5.3380    -0.8810     0.0650 ha         1 Q0J       0.125000
     25 H3          -3.1480    -2.0180    -0.1280 ha         1 Q0J       0.139000
     26 H6          -6.3830     1.7040    -0.6860 hc         1 Q0J       0.048700
     27 H7          -6.4210     1.3650     1.0530 hc         1 Q0J       0.048700
     28 H8          -5.7330     2.8840     0.4630 hc         1 Q0J       0.048700
     29 H9           1.3140     2.7300    -1.5210 ha         1 Q0J       0.128000
     30 H10          1.8120    -0.3670     1.4650 ha         1 Q0J       0.128000
     31 H11          4.2510     0.1140     1.5420 ha         1 Q0J       0.133500
     32 H12          3.7560     3.2040    -1.4210 ha         1 Q0J       0.133500
     33 H13          1.5920    -1.1950    -1.4240 ha         1 Q0J       0.126000
     34 H14          2.6200    -3.4550    -1.3930 h4         1 Q0J       0.017600
     35 H15         -0.3940    -4.9530     1.0380 h4         1 Q0J       0.017600
     36 H16         -1.5240    -2.7470     1.1470 ha         1 Q0J       0.126000
     37 H1          -3.2630     3.0090     0.1690 h4         1 Q0J       0.161000
@<TRIPOS>BOND
     1     1     2 2   
     2     1    21 1   
     3     1    37 1   
     4     2     3 1   
     5     2     8 1   
     6     3     4 2   
     7     3    24 1   
     8     4     5 1   
     9     4    25 1   
    10     5     6 2   
    11     5    21 1   
    12     6     7 1   
    13     6    15 1   
    14     7     9 1   
    15     7    22 2   
    16     8    26 1   
    17     8    27 1   
    18     8    28 1   
    19     9    10 ar  
    20     9    11 ar  
    21    10    14 ar  
    22    10    29 1   
    23    11    12 ar  
    24    11    30 1   
    25    12    13 ar  
    26    12    31 1   
    27    13    14 ar  
    28    13    20 1   
    29    14    32 1   
    30    15    16 ar  
    31    15    19 ar  
    32    16    17 ar  
    33    16    33 1   
    34    17    23 ar  
    35    17    34 1   
    36    18    19 ar  
    37    18    23 ar  
    38    18    35 1   
    39    19    36 1   
    40    21    22 1   
@<TRIPOS>SUBSTRUCTURE
     1 Q0J         1 TEMP              0 ****  ****    0 ROOT
