@<TRIPOS>MOLECULE
Q0K
   30    32     1     0     0
SMALL
abcg2


@<TRIPOS>ATOM
      1 CAA         20.8040    18.8870    24.9200 c3         1 Q0K      -0.044800
      2 OAC         25.8290    14.7220    25.4510 o          1 Q0K      -0.548000
      3 CAD         20.6510    16.3640    24.8740 ca         1 Q0K      -0.114500
      4 CAE         22.7430    17.3780    24.3210 ca         1 Q0K      -0.114500
      5 CAF         21.2120    15.1070    24.6960 ca         1 Q0K      -0.088000
      6 CAG         23.3080    16.1220    24.1370 ca         1 Q0K      -0.088000
      7 CAH         22.4210    12.5860    23.4880 cc         1 Q0K      -0.188000
      8 NAI         25.5380    10.9470    23.8220 nc         1 Q0K      -0.714100
      9 NAJ         23.2590    11.4960    23.3430 na         1 Q0K      -0.114000
     10 NAK         26.6940    12.7050    24.8690 ns         1 Q0K      -0.456400
     11 CAL         21.4050    17.5260    24.6930 ca         1 Q0K      -0.076300
     12 CAM         26.6340    11.4410    24.3490 cd         1 Q0K       0.721800
     13 CAN         22.5530    14.9590    24.3170 ca         1 Q0K      -0.014000
     14 CAO         23.1130    13.6260    24.0610 cd         1 Q0K      -0.016000
     15 CAP         25.6370    13.6350    24.9030 c          1 Q0K       0.619600
     16 CAQ         24.4940    11.8070    23.8110 cc         1 Q0K       0.165400
     17 CAR         24.4570    13.1330    24.2760 cd         1 Q0K      -0.289600
     18 HAA         20.8640    19.1690    25.9750 hc         1 Q0K       0.040700
     19 HAAA        21.3310    19.6510    24.3460 hc         1 Q0K       0.040700
     20 HAAB        19.7500    18.9060    24.6380 hc         1 Q0K       0.040700
     21 HNAB        27.6800     9.7280    24.1680 hn         1 Q0K       0.493000
     22 HNAA        28.5240    10.9730    24.9820 hn         1 Q0K       0.493000
     23 HAD         19.6100    16.4450    25.1660 ha         1 Q0K       0.109000
     24 HAE         23.3510    18.2610    24.1640 ha         1 Q0K       0.109000
     25 HAF         20.6050    14.2250    24.8590 ha         1 Q0K       0.116500
     26 HAG         24.3460    16.0410    23.8480 ha         1 Q0K       0.116500
     27 HAH         21.4020    12.5450    23.1420 h4         1 Q0K       0.153000
     28 HNAJ        23.0030    10.6100    22.9370 hn         1 Q0K       0.360000
     29 HNAK        27.5570    13.0240    25.2900 hn         1 Q0K       0.322500
     30 NAB         27.7780    10.7130    24.3570 nv         1 Q0K      -1.035200
@<TRIPOS>BOND
     1     1    11 1   
     2     1    18 1   
     3     1    19 1   
     4     1    20 1   
     5     2    15 2   
     6     3     5 ar  
     7     3    11 ar  
     8     3    23 1   
     9     4     6 ar  
    10     4    11 ar  
    11     4    24 1   
    12     5    13 ar  
    13     5    25 1   
    14     6    13 ar  
    15     6    26 1   
    16     7     9 1   
    17     7    14 2   
    18     7    27 1   
    19     8    12 2   
    20     8    16 1   
    21     9    16 1   
    22     9    28 1   
    23    10    12 1   
    24    10    15 1   
    25    10    29 1   
    26    12    30 1   
    27    13    14 1   
    28    14    17 1   
    29    15    17 1   
    30    16    17 2   
    31    21    30 1   
    32    22    30 1   
@<TRIPOS>SUBSTRUCTURE
     1 Q0K         1 TEMP              0 ****  ****    0 ROOT
