@<TRIPOS>MOLECULE
Q0K
   30    32     1     0     0
SMALL
No Charge or Current Charge


@<TRIPOS>ATOM
      1 CAA         20.8520    18.8610    25.0160 c3         1 Q0K      -0.044800
      2 OAC         25.7660    14.7860    25.2950 o          1 Q0K      -0.548000
      3 CAD         20.6640    16.3340    24.8350 ca         1 Q0K      -0.114500
      4 CAE         22.8030    17.3700    24.3630 ca         1 Q0K      -0.114500
      5 CAF         21.2210    15.0690    24.5750 ca         1 Q0K      -0.088000
      6 CAG         23.3590    16.1050    24.1060 ca         1 Q0K      -0.088000
      7 CAH         22.3690    12.5390    23.5030 cc         1 Q0K      -0.188000
      8 NAI         25.5850    10.9570    23.8490 nc         1 Q0K      -0.714100
      9 NAJ         23.2200    11.4410    23.3570 na         1 Q0K      -0.114000
     10 NAK         26.7120    12.8080    24.8190 ns         1 Q0K      -0.456400
     11 CAL         21.4530    17.4920    24.7350 ca         1 Q0K      -0.076300
     12 CAM         26.6350    11.5520    24.3520 cd         1 Q0K       0.721800
     13 CAN         22.5840    14.9330    24.2310 ca         1 Q0K      -0.014000
     14 CAO         23.1420    13.5930    23.9400 cd         1 Q0K      -0.016000
     15 CAP         25.6680    13.6730    24.8070 c          1 Q0K       0.619600
     16 CAQ         24.4870    11.7770    23.7830 cc         1 Q0K       0.165400
     17 CAR         24.4590    13.0820    24.1860 cd         1 Q0K      -0.289600
     18 HAA         20.9620    19.1250    26.0740 hc         1 Q0K       0.040700
     19 HAAA        21.3420    19.6420    24.4220 hc         1 Q0K       0.040700
     20 HAAB        19.7830    18.8860    24.7730 hc         1 Q0K       0.040700
     21 HNAB        27.5450     9.8210    24.2740 hn         1 Q0K       0.493000
     22 HNAA        28.3640    11.0060    25.1960 hn         1 Q0K       0.493000
     23 HAD         19.6160    16.4100    25.1160 ha         1 Q0K       0.109000
     24 HAE         23.4220    18.2580    24.2580 ha         1 Q0K       0.109000
     25 HAF         20.5880    14.1900    24.6670 ha         1 Q0K       0.116500
     26 HAG         24.3850    16.0490    23.7590 ha         1 Q0K       0.116500
     27 HAH         21.3170    12.4900    23.2480 h4         1 Q0K       0.153000
     28 HNAJ        22.9550    10.5240    23.0200 hn         1 Q0K       0.360000
     29 HNAK        27.5740    13.1540    25.2020 hn         1 Q0K       0.322500
     30 NAB         27.7210    10.8040    24.4410 nv         1 Q0K      -1.035200
@<TRIPOS>BOND
     1     1    11 1   
     2     1    18 1   
     3     1    19 1   
     4     1    20 1   
     5     2    15 2   
     6     3     5 ar  
     7     3    11 ar  
     8     3    23 1   
     9     4     6 ar  
    10     4    11 ar  
    11     4    24 1   
    12     5    13 ar  
    13     5    25 1   
    14     6    13 ar  
    15     6    26 1   
    16     7     9 1   
    17     7    14 2   
    18     7    27 1   
    19     8    12 2   
    20     8    16 1   
    21     9    16 1   
    22     9    28 1   
    23    10    12 1   
    24    10    15 1   
    25    10    29 1   
    26    12    30 1   
    27    13    14 1   
    28    14    17 1   
    29    15    17 1   
    30    16    17 2   
    31    21    30 1   
    32    22    30 1   
@<TRIPOS>SUBSTRUCTURE
     1 Q0K         1 TEMP              0 ****  ****    0 ROOT
