@<TRIPOS>MOLECULE
Q0L
   96   102     1     0     0
SMALL
No Charge or Current Charge


@<TRIPOS>ATOM
      1 C10         -6.4960    11.7490    23.8940 c5         1 Q0L       0.283300
      2 C12         -8.5230    10.3800    24.5580 ca         1 Q0L      -0.005300
      3 C13         -9.9010    10.2640    24.8300 ca         1 Q0L      -0.132500
      4 C14        -10.7320    11.3980    24.7930 ca         1 Q0L       0.105000
      5 C15        -10.1360    12.6410    24.5240 ca         1 Q0L      -0.132500
      6 C16         -8.7570    12.7310    24.2670 ca         1 Q0L      -0.056000
      7 C17        -12.1740    11.3330    25.0500 cc         1 Q0L      -0.143000
      8 C20        -14.3400    10.8790    24.8910 cd         1 Q0L       0.373900
      9 C22        -16.7880    10.5940    24.5850 c          1 Q0L       0.608100
     10 C23        -17.7840     9.6470    23.9060 c3         1 Q0L      -0.161400
     11 C24        -18.7130     8.9500    24.9240 c3         1 Q0L      -0.020100
     12 C04         -4.1710     9.3070    24.7930 c3         1 Q0L       0.211600
     13 C05         -4.5000    10.4760    23.8070 c5         1 Q0L       0.150300
     14 C06         -4.1870    11.8960    24.3930 c5         1 Q0L       0.115300
     15 C08         -5.5570    12.2330    25.0420 c5         1 Q0L       0.073300
     16 C25        -19.7180     8.0330    24.2410 ca         1 Q0L      -0.072300
     17 C26        -19.3740     6.6970    23.9510 ca         1 Q0L      -0.100500
     18 C27        -20.3000     5.8500    23.3160 ca         1 Q0L      -0.108000
     19 C28        -21.5700     6.3350    22.9660 ca         1 Q0L       0.116000
     20 C30        -21.9180     7.6660    23.2490 ca         1 Q0L      -0.108000
     21 C31        -20.9930     8.5140    23.8850 ca         1 Q0L      -0.100500
     22 C33        -13.0450    10.4030    24.5370 cd         1 Q0L      -0.121300
     23 C34        -12.7330     9.1780    23.7040 c3         1 Q0L      -0.033800
     24 C39         -8.1350    11.6310    28.0310 c3         1 Q0L       0.242600
     25 C40         -9.5180    11.7870    28.7510 c5         1 Q0L       0.148300
     26 C41         -9.6160    11.3020    30.2500 c5         1 Q0L       0.158300
     27 C43        -10.5640    10.0720    30.1330 c5         1 Q0L       0.087300
     28 C45        -11.4930    10.5720    28.9830 c5         1 Q0L       0.291300
     29 C47        -13.7280     9.6660    28.2250 ca         1 Q0L       0.109500
     30 C48        -14.1140     8.4660    27.6820 ca         1 Q0L      -0.094600
     31 C49        -15.4900     8.2420    27.4730 ca         1 Q0L       0.423900
     32 C52        -15.9180    10.3200    28.3280 ca         1 Q0L       0.157900
     33 C55        -11.9740     8.3380    27.8650 cc         1 Q0L       0.446700
     34 N11         -7.9200    11.6080    24.2370 na         1 Q0L       0.012300
     35 N18        -12.9730    12.2960    25.6530 na         1 Q0L       0.005800
     36 N19        -14.3210    12.0190    25.5550 nc         1 Q0L      -0.479800
     37 N21        -15.4700    10.2050    24.4860 ns         1 Q0L      -0.477400
     38 N46        -12.3680     9.5940    28.3390 na         1 Q0L      -0.286300
     39 N50        -15.9700     7.0740    26.9710 nv         1 Q0L      -1.076900
     40 N51        -16.4030     9.1680    27.8010 nb         1 Q0L      -0.323000
     41 N53        -14.6180    10.6180    28.5680 nb         1 Q0L      -0.196000
     42 N54        -13.0330     7.6150    27.4450 nd         1 Q0L      -0.583100
     43 O01         -4.4900     7.5600    27.1980 o          1 Q0L      -0.811000
     44 O03         -5.2980     8.4310    24.9550 os         1 Q0L      -0.585400
     45 O07         -3.8640    12.8610    23.3810 oh         1 Q0L      -0.702000
     46 O09         -5.6710    13.6410    25.3390 oh         1 Q0L      -0.723000
     47 O32        -17.1580    11.6350    25.1100 o          1 Q0L      -0.552100
     48 O35         -5.9160    10.5010    23.4450 os         1 Q0L      -0.401000
     49 O36         -6.3500     9.3000    26.8980 os         1 Q0L      -0.756800
     50 O38         -7.3140    10.6170    28.6310 os         1 Q0L      -0.596400
     51 O42        -10.2500    12.2630    31.1070 oh         1 Q0L      -0.738000
     52 O44        -11.2470     9.8210    31.3850 oh         1 Q0L      -0.718000
     53 O56        -10.5730    11.1060    28.0210 os         1 Q0L      -0.459000
     54 O57         -6.7650     8.2360    29.2090 o          1 Q0L      -0.832500
     55 O58         -8.6850     8.6730    27.6990 o          1 Q0L      -0.832500
     56 O59         -6.6840     6.8120    26.2880 o          1 Q0L      -0.811000
     57 P02         -5.7140     7.9360    26.4290 p5         1 Q0L       1.444800
     58 P37         -7.3210     9.0890    28.1190 p5         1 Q0L       1.467800
     59 Cl29       -22.7270     5.2760    22.1700 cl         1 Q0L      -0.219000
     60 H1          -6.4600    12.4680    23.0670 h2         1 Q0L       0.104700
     61 H3          -7.8740     9.5040    24.6110 h4         1 Q0L       0.204000
     62 H4         -10.3130     9.2950    25.0990 ha         1 Q0L       0.198000
     63 H5         -10.7420    13.5440    24.5010 ha         1 Q0L       0.198000
     64 H6          -8.2940    13.7000    24.0680 h4         1 Q0L       0.204000
     65 H7         -18.4070    10.2370    23.2230 hc         1 Q0L       0.064200
     66 H8         -17.2510     8.8790    23.3330 hc         1 Q0L       0.064200
     67 H9         -18.1070     8.3770    25.6330 hc         1 Q0L       0.068700
     68 H10        -19.2370     9.7100    25.5180 hc         1 Q0L       0.068700
     69 H11         -3.3130     8.7470    24.4000 h1         1 Q0L       0.030200
     70 H12         -3.8620     9.7320    25.7580 h1         1 Q0L       0.030200
     71 H13         -3.9130    10.3050    22.8950 h1         1 Q0L       0.121700
     72 H14         -3.3860    11.8550    25.1460 h1         1 Q0L       0.075700
     73 H15         -5.7250    11.6280    25.9450 h1         1 Q0L       0.075700
     74 H16        -18.3910     6.3150    24.2170 ha         1 Q0L       0.126500
     75 H17        -20.0330     4.8200    23.0940 ha         1 Q0L       0.124500
     76 H18        -22.9010     8.0400    22.9760 ha         1 Q0L       0.124500
     77 H19        -21.2680     9.5450    24.0990 ha         1 Q0L       0.126500
     78 H20        -12.5500     8.3070    24.3430 hc         1 Q0L       0.060367
     79 H21        -13.5550     8.9270    23.0240 hc         1 Q0L       0.060367
     80 H22        -11.8460     9.3340    23.0780 hc         1 Q0L       0.060367
     81 H23         -8.2990    11.4300    26.9680 h1         1 Q0L       0.012200
     82 H24         -7.6120    12.5930    28.0970 h1         1 Q0L       0.012200
     83 H25         -9.7570    12.8580    28.7110 h1         1 Q0L       0.047700
     84 H26         -8.6390    11.0100    30.6620 h1         1 Q0L       0.086700
     85 H27         -9.9960     9.1870    29.8130 h1         1 Q0L       0.098700
     86 H28        -12.1410    11.3780    29.3520 h2         1 Q0L       0.097700
     87 H29        -16.6500    11.0800    28.5950 h5         1 Q0L       0.037100
     88 H30        -10.9440     8.0070    27.8660 h5         1 Q0L       0.147800
     89 H31        -12.6450    13.1380    26.1240 hn         1 Q0L       0.374000
     90 H32        -15.3380     9.3220    24.0160 hn         1 Q0L       0.331500
     91 H33        -16.9310     6.8320    27.1880 hn         1 Q0L       0.498000
     92 H34        -15.3120     6.3000    26.9260 hn         1 Q0L       0.498000
     93 H35         -4.2520    13.7080    23.7150 ho         1 Q0L       0.512000
     94 H36         -5.3360    13.7840    26.2580 ho         1 Q0L       0.526000
     95 H38        -10.8290    11.6850    31.6690 ho         1 Q0L       0.521000
     96 H39        -11.7590     8.9810    31.2870 ho         1 Q0L       0.522000
@<TRIPOS>BOND
     1     1    15 1   
     2     1    34 1   
     3     1    48 1   
     4     1    60 1   
     5     2     3 ar  
     6     2    34 2   
     7     2    61 1   
     8     3     4 ar  
     9     3    62 1   
    10     4     5 ar  
    11     4     7 1   
    12     5     6 ar  
    13     5    63 1   
    14     6    34 1   
    15     6    64 1   
    16     7    22 2   
    17     7    35 1   
    18     8    22 1   
    19     8    36 2   
    20     8    37 1   
    21     9    10 1   
    22     9    37 1   
    23     9    47 2   
    24    10    11 1   
    25    10    65 1   
    26    10    66 1   
    27    11    16 1   
    28    11    67 1   
    29    11    68 1   
    30    12    13 1   
    31    12    44 1   
    32    12    69 1   
    33    12    70 1   
    34    13    14 1   
    35    13    48 1   
    36    13    71 1   
    37    14    15 1   
    38    14    45 1   
    39    14    72 1   
    40    15    46 1   
    41    15    73 1   
    42    16    17 ar  
    43    16    21 ar  
    44    17    18 ar  
    45    17    74 1   
    46    18    19 ar  
    47    18    75 1   
    48    19    20 ar  
    49    19    59 1   
    50    20    21 ar  
    51    20    76 1   
    52    21    77 1   
    53    22    23 1   
    54    23    78 1   
    55    23    79 1   
    56    23    80 1   
    57    24    25 1   
    58    24    50 1   
    59    24    81 1   
    60    24    82 1   
    61    25    26 1   
    62    25    53 1   
    63    25    83 1   
    64    26    27 1   
    65    26    51 1   
    66    26    84 1   
    67    27    28 1   
    68    27    52 1   
    69    27    85 1   
    70    28    38 1   
    71    28    53 1   
    72    28    86 1   
    73    29    30 ar  
    74    29    38 1   
    75    29    41 ar  
    76    30    31 ar  
    77    30    42 1   
    78    31    39 1   
    79    31    40 ar  
    80    32    40 ar  
    81    32    41 ar  
    82    32    87 1   
    83    33    38 1   
    84    33    42 2   
    85    33    88 1   
    86    35    36 1   
    87    35    89 1   
    88    37    90 1   
    89    39    91 1   
    90    39    92 1   
    91    43    57 1   
    92    44    57 1   
    93    45    93 1   
    94    46    94 1   
    95    49    57 1   
    96    49    58 1   
    97    50    58 1   
    98    51    95 1   
    99    52    96 1   
   100    54    58 1   
   101    55    58 1   
   102    56    57 1   
@<TRIPOS>SUBSTRUCTURE
     1 Q0L         1 TEMP              0 ****  ****    0 ROOT
