@<TRIPOS>MOLECULE
Q0L
   96   102     1     0     0
SMALL
abcg2


@<TRIPOS>ATOM
      1 C10         -5.9510    12.3410    23.4910 c5         1 Q0L       0.283300
      2 C12         -7.8600    10.8490    23.9880 ca         1 Q0L      -0.005300
      3 C13         -9.1930    10.6330    24.2370 ca         1 Q0L      -0.132500
      4 C14        -10.0950    11.6930    24.1810 ca         1 Q0L       0.105000
      5 C15         -9.5930    12.9570    23.8480 ca         1 Q0L      -0.132500
      6 C16         -8.2540    13.1160    23.6090 ca         1 Q0L      -0.056000
      7 C17        -11.4960    11.4860    24.4860 cc         1 Q0L      -0.143000
      8 C20        -13.5660    10.8260    24.7760 cd         1 Q0L       0.373900
      9 C22        -15.9720    10.4000    25.1620 c          1 Q0L       0.608100
     10 C23        -17.0280     9.3920    24.7640 c3         1 Q0L      -0.161400
     11 C24        -18.3840     9.6490    25.4100 c3         1 Q0L      -0.020100
     12 C04         -4.7190    10.1910    25.5640 c3         1 Q0L       0.211600
     13 C05         -4.2590    11.0390    24.3920 c5         1 Q0L       0.150300
     14 C06         -3.9640    12.4750    24.7920 c5         1 Q0L       0.115300
     15 C08         -5.3630    13.1030    24.6910 c5         1 Q0L       0.073300
     16 C25        -19.3750     8.5960    25.0000 ca         1 Q0L      -0.072300
     17 C26        -19.6780     7.5290    25.8410 ca         1 Q0L      -0.100500
     18 C27        -20.5570     6.5290    25.4490 ca         1 Q0L      -0.108000
     19 C28        -21.1410     6.5990    24.1950 ca         1 Q0L       0.116000
     20 C30        -20.8660     7.6540    23.3380 ca         1 Q0L      -0.108000
     21 C31        -19.9850     8.6430    23.7490 ca         1 Q0L      -0.100500
     22 C33        -12.3280    10.4080    24.2380 cd         1 Q0L      -0.121300
     23 C34        -12.0390     9.1290    23.5290 c3         1 Q0L      -0.033800
     24 C39         -8.9720    10.5710    27.9190 c3         1 Q0L       0.242600
     25 C40        -10.1980    11.2420    28.4980 c5         1 Q0L       0.148300
     26 C41        -10.4620    10.9480    29.9770 c5         1 Q0L       0.158300
     27 C43        -11.5350     9.8660    29.8960 c5         1 Q0L       0.087300
     28 C45        -12.3310    10.3440    28.6760 c5         1 Q0L       0.291300
     29 C47        -14.4060     9.0270    28.2070 ca         1 Q0L       0.109500
     30 C48        -14.6470     7.8830    27.4600 ca         1 Q0L      -0.094600
     31 C49        -15.9550     7.3730    27.5070 ca         1 Q0L       0.423900
     32 C52        -16.4880     9.1250    28.9000 ca         1 Q0L       0.157900
     33 C55        -12.5970     8.3270    27.1890 cc         1 Q0L       0.446700
     34 N11         -7.4100    12.0740    23.6920 na         1 Q0L       0.012300
     35 N18        -12.2490    12.4240    25.0950 na         1 Q0L       0.005800
     36 N19        -13.4960    12.0340    25.3040 nc         1 Q0L      -0.479800
     37 N21        -14.7250    10.0680    24.7220 ns         1 Q0L      -0.477400
     38 N46        -13.0820     9.3000    28.0220 na         1 Q0L      -0.286300
     39 N50        -16.3260     6.2810    26.8290 nv         1 Q0L      -1.076900
     40 N51        -16.8580     8.0270    28.2450 nb         1 Q0L      -0.323000
     41 N53        -15.2940     9.6900    28.9450 nb         1 Q0L      -0.196000
     42 N54        -13.5060     7.4670    26.8270 nd         1 Q0L      -0.583100
     43 O01         -4.9440     7.7730    27.3270 o          1 Q0L      -0.811000
     44 O03         -5.2030     8.9660    25.0690 os         1 Q0L      -0.585400
     45 O07         -3.0920    13.0290    23.8470 oh         1 Q0L      -0.702000
     46 O09         -5.3720    14.4740    24.4310 oh         1 Q0L      -0.723000
     47 O32        -16.2180    11.4100    25.7890 o          1 Q0L      -0.552100
     48 O35         -5.2690    11.1560    23.3750 os         1 Q0L      -0.401000
     49 O36         -7.1970     8.6860    26.5200 os         1 Q0L      -0.756800
     50 O38         -8.8980     9.2080    28.2750 os         1 Q0L      -0.596400
     51 O42        -10.9650    12.1210    30.5710 oh         1 Q0L      -0.738000
     52 O44        -12.2820     9.7940    31.0730 oh         1 Q0L      -0.718000
     53 O56        -11.3740    10.8360    27.7890 os         1 Q0L      -0.459000
     54 O57         -8.2340     6.8140    27.9770 o          1 Q0L      -0.832500
     55 O58         -9.6040     8.0120    26.1070 o          1 Q0L      -0.832500
     56 O59         -6.1730     6.6680    25.2920 o          1 Q0L      -0.811000
     57 P02         -5.8220     7.8560    26.1220 p5         1 Q0L       1.444800
     58 P37         -8.5510     8.0340    27.1800 p5         1 Q0L       1.467800
     59 CL29       -22.2360     5.3510    23.6910 cl         1 Q0L      -0.219000
     60 H1          -5.8890    12.9280    22.5690 h2         1 Q0L       0.104700
     61 H3          -7.1370    10.0510    24.0470 h4         1 Q0L       0.204000
     62 H4          -9.4970     9.6420    24.5490 ha         1 Q0L       0.198000
     63 H5         -10.2360    13.8200    23.7560 ha         1 Q0L       0.198000
     64 H6          -7.8300    14.0730    23.3410 h4         1 Q0L       0.204000
     65 H7         -17.1260     9.4210    23.6730 hc         1 Q0L       0.064200
     66 H8         -16.6790     8.3820    24.9970 hc         1 Q0L       0.064200
     67 H9         -18.2820     9.6570    26.4950 hc         1 Q0L       0.068700
     68 H10        -18.7510    10.6350    25.1150 hc         1 Q0L       0.068700
     69 H11         -3.8600    10.0470    26.2280 h1         1 Q0L       0.030200
     70 H12         -5.4870    10.7100    26.1520 h1         1 Q0L       0.030200
     71 H13         -3.3950    10.5660    23.9200 h1         1 Q0L       0.121700
     72 H14         -3.5690    12.5460    25.8140 h1         1 Q0L       0.075700
     73 H15         -5.9330    12.8600    25.5950 h1         1 Q0L       0.075700
     74 H16        -19.2230     7.4780    26.8230 ha         1 Q0L       0.126500
     75 H17        -20.7820     5.7080    26.1170 ha         1 Q0L       0.124500
     76 H18        -21.3320     7.7070    22.3630 ha         1 Q0L       0.124500
     77 H19        -19.7730     9.4670    23.0770 ha         1 Q0L       0.126500
     78 H20        -11.8380     8.3150    24.2270 hc         1 Q0L       0.060367
     79 H21        -12.8790     8.8230    22.9040 hc         1 Q0L       0.060367
     80 H22        -11.1760     9.2200    22.8710 hc         1 Q0L       0.060367
     81 H23         -8.9810    10.7220    26.8370 h1         1 Q0L       0.012200
     82 H24         -8.0910    11.0950    28.3030 h1         1 Q0L       0.012200
     83 H25        -10.0600    12.3210    28.3600 h1         1 Q0L       0.047700
     84 H26         -9.5620    10.5940    30.4920 h1         1 Q0L       0.086700
     85 H27        -11.0580     8.9110    29.6500 h1         1 Q0L       0.098700
     86 H28        -13.0570    11.1090    28.9750 h2         1 Q0L       0.097700
     87 H29        -17.2700     9.6120    29.4740 h5         1 Q0L       0.037100
     88 H30        -11.5620     8.3040    26.8690 h5         1 Q0L       0.147800
     89 H31        -11.9340    13.2900    25.5050 hn         1 Q0L       0.374000
     90 H32        -14.6340     9.1750    24.2610 hn         1 Q0L       0.331500
     91 H33        -17.2350     5.8790    26.9850 hn         1 Q0L       0.498000
     92 H34        -15.6380     5.7120    26.3670 hn         1 Q0L       0.498000
     93 H35         -3.1450    13.9890    23.9140 ho         1 Q0L       0.512000
     94 H36         -5.3960    14.9550    25.2650 ho         1 Q0L       0.526000
     95 H38        -11.2690    11.9030    31.4590 ho         1 Q0L       0.521000
     96 H39        -12.7260     8.9420    31.1150 ho         1 Q0L       0.522000
@<TRIPOS>BOND
     1     1    15 1   
     2     1    34 1   
     3     1    48 1   
     4     1    60 1   
     5     2     3 ar  
     6     2    34 2   
     7     2    61 1   
     8     3     4 ar  
     9     3    62 1   
    10     4     5 ar  
    11     4     7 1   
    12     5     6 ar  
    13     5    63 1   
    14     6    34 1   
    15     6    64 1   
    16     7    22 2   
    17     7    35 1   
    18     8    22 1   
    19     8    36 2   
    20     8    37 1   
    21     9    10 1   
    22     9    37 1   
    23     9    47 2   
    24    10    11 1   
    25    10    65 1   
    26    10    66 1   
    27    11    16 1   
    28    11    67 1   
    29    11    68 1   
    30    12    13 1   
    31    12    44 1   
    32    12    69 1   
    33    12    70 1   
    34    13    14 1   
    35    13    48 1   
    36    13    71 1   
    37    14    15 1   
    38    14    45 1   
    39    14    72 1   
    40    15    46 1   
    41    15    73 1   
    42    16    17 ar  
    43    16    21 ar  
    44    17    18 ar  
    45    17    74 1   
    46    18    19 ar  
    47    18    75 1   
    48    19    20 ar  
    49    19    59 1   
    50    20    21 ar  
    51    20    76 1   
    52    21    77 1   
    53    22    23 1   
    54    23    78 1   
    55    23    79 1   
    56    23    80 1   
    57    24    25 1   
    58    24    50 1   
    59    24    81 1   
    60    24    82 1   
    61    25    26 1   
    62    25    53 1   
    63    25    83 1   
    64    26    27 1   
    65    26    51 1   
    66    26    84 1   
    67    27    28 1   
    68    27    52 1   
    69    27    85 1   
    70    28    38 1   
    71    28    53 1   
    72    28    86 1   
    73    29    30 ar  
    74    29    38 1   
    75    29    41 ar  
    76    30    31 ar  
    77    30    42 1   
    78    31    39 1   
    79    31    40 ar  
    80    32    40 ar  
    81    32    41 ar  
    82    32    87 1   
    83    33    38 1   
    84    33    42 2   
    85    33    88 1   
    86    35    36 1   
    87    35    89 1   
    88    37    90 1   
    89    39    91 1   
    90    39    92 1   
    91    43    57 1   
    92    44    57 1   
    93    45    93 1   
    94    46    94 1   
    95    49    57 1   
    96    49    58 1   
    97    50    58 1   
    98    51    95 1   
    99    52    96 1   
   100    54    58 1   
   101    55    58 1   
   102    56    57 1   
@<TRIPOS>SUBSTRUCTURE
     1 Q0L         1 TEMP              0 ****  ****    0 ROOT
