@<TRIPOS>MOLECULE
Q0M
   47    49     1     0     0
SMALL
abcg2


@<TRIPOS>ATOM
      1 C10         -4.5660    -4.3910    -3.1630 ca         1 Q0M       0.165000
      2 C13         -2.8090    -7.0800    -1.1920 c          1 Q0M       0.618700
      3 C15         -9.0750    -6.6270    -4.8170 cy         1 Q0M      -0.089400
      4 C17         -7.2010    -7.0490    -3.7460 cy         1 Q0M       0.023400
      5 C01         -5.0380    -4.9930     1.2010 ca         1 Q0M       0.013000
      6 C02         -6.1670    -5.0110     0.3930 ca         1 Q0M      -0.073900
      7 C03         -6.3690    -4.0400    -0.5680 ca         1 Q0M       0.045000
      8 C04         -5.4150    -3.0390    -0.7450 ca         1 Q0M      -0.334500
      9 C05         -4.2700    -2.9790     0.0630 ca         1 Q0M       0.259100
     10 C06         -4.1160    -3.9740     1.0390 ca         1 Q0M      -0.003000
     11 C07         -4.9640    -7.0580    -2.5350 ca         1 Q0M      -0.025000
     12 C08         -3.7950    -6.4270    -2.0940 ca         1 Q0M      -0.251600
     13 C09         -3.5780    -5.0820    -2.4380 ca         1 Q0M       0.196100
     14 C11         -5.6910    -5.0510    -3.6140 ca         1 Q0M      -0.035000
     15 C12         -5.9100    -6.3970    -3.2990 ca         1 Q0M      -0.104300
     16 C14         -2.1970    -8.9480     0.2520 c3         1 Q0M       0.091300
     17 C16         -7.6260    -6.9290    -5.2570 cy         1 Q0M      -0.069900
     18 C18         -8.5560    -6.3210    -3.3960 cy         1 Q0M      -0.069900
     19 C19         -7.2790    -8.4400    -3.3210 c1         1 Q0M       0.321900
     20 N01         -4.4660    -2.9690    -3.2710 nu         1 Q0M      -0.822100
     21 N02         -3.0890    -8.2810    -0.6820 ns         1 Q0M      -0.471900
     22 N03         -7.3710    -9.5380    -2.9900 n1         1 Q0M      -0.471000
     23 O01         -3.3580    -2.0190    -0.1390 oh         1 Q0M      -0.501100
     24 O02         -6.8430    -2.2900    -2.7760 o          1 Q0M      -0.526500
     25 O03         -4.9680    -0.7880    -2.1490 o          1 Q0M      -0.526500
     26 O04         -2.4900    -4.4010    -2.0560 oh         1 Q0M      -0.574100
     27 O05         -1.7410    -6.4960    -0.8930 o          1 Q0M      -0.653100
     28 S01         -5.5090    -2.1150    -2.2650 sy         1 Q0M       1.155600
     29 CL1         -2.6750    -3.9480     2.0180 cl         1 Q0M      -0.184000
     30 H1          -9.5830    -5.8170    -5.3360 hc         1 Q0M       0.061200
     31 H2          -9.7040    -7.5160    -4.8420 hc         1 Q0M       0.061200
     32 H3          -4.8660    -5.7620     1.9400 ha         1 Q0M       0.146000
     33 H4          -7.2280    -4.0730    -1.2190 ha         1 Q0M       0.160000
     34 H5          -5.1430    -8.0910    -2.2760 ha         1 Q0M       0.119000
     35 H6          -6.4250    -4.4830    -4.1670 ha         1 Q0M       0.153000
     36 H7          -2.6390    -9.9050     0.5180 h1         1 Q0M       0.050367
     37 H8          -1.2190    -9.1160    -0.2010 h1         1 Q0M       0.050367
     38 H9          -2.0630    -8.3490     1.1550 h1         1 Q0M       0.050367
     39 H10         -7.4440    -7.8050    -5.8760 hc         1 Q0M       0.066700
     40 H11         -7.1390    -6.0640    -5.7030 hc         1 Q0M       0.066700
     41 H12         -8.3680    -5.2610    -3.2390 hc         1 Q0M       0.066700
     42 H13         -9.1030    -6.7190    -2.5450 hc         1 Q0M       0.066700
     43 H14         -3.5180    -2.6310    -3.1270 hn         1 Q0M       0.500000
     44 H15         -3.9730    -8.7180    -0.8800 hn         1 Q0M       0.329500
     45 H16         -2.5860    -2.1710     0.4290 ho         1 Q0M       0.498000
     46 H17         -1.9370    -5.0570    -1.5320 ho         1 Q0M       0.539000
     47 BR1         -7.4110    -6.4500     0.5440 br         1 Q0M      -0.085100
@<TRIPOS>BOND
     1     1    13 ar  
     2     1    14 ar  
     3     1    20 1   
     4     2    12 1   
     5     2    21 1   
     6     2    27 2   
     7     3    17 1   
     8     3    18 1   
     9     3    30 1   
    10     3    31 1   
    11     4    15 1   
    12     4    17 1   
    13     4    18 1   
    14     4    19 1   
    15     5     6 ar  
    16     5    10 ar  
    17     5    32 1   
    18     6     7 ar  
    19     6    47 1   
    20     7     8 ar  
    21     7    33 1   
    22     8     9 ar  
    23     8    28 1   
    24     9    10 ar  
    25     9    23 1   
    26    10    29 1   
    27    11    12 ar  
    28    11    15 ar  
    29    11    34 1   
    30    12    13 ar  
    31    13    26 1   
    32    14    15 ar  
    33    14    35 1   
    34    16    21 1   
    35    16    36 1   
    36    16    37 1   
    37    16    38 1   
    38    17    39 1   
    39    17    40 1   
    40    18    41 1   
    41    18    42 1   
    42    19    22 3   
    43    20    28 1   
    44    20    43 1   
    45    21    44 1   
    46    23    45 1   
    47    24    28 2   
    48    25    28 2   
    49    26    46 1   
@<TRIPOS>SUBSTRUCTURE
     1 Q0M         1 TEMP              0 ****  ****    0 ROOT
