@<TRIPOS>MOLECULE
Q0M
   47    49     1     0     0
SMALL
No Charge or Current Charge


@<TRIPOS>ATOM
      1 C10         -4.1090    -4.6530    -2.7880 ca         1 Q0M       0.165000
      2 C13         -1.9890    -7.7520    -1.9490 c          1 Q0M       0.618700
      3 C15         -9.0730    -6.6840    -3.5990 cy         1 Q0M      -0.089400
      4 C17         -6.9960    -7.2100    -3.1700 cy         1 Q0M       0.023400
      5 C01         -7.2140    -3.4020     1.2700 ca         1 Q0M       0.013000
      6 C02         -7.9100    -3.2270     0.0640 ca         1 Q0M      -0.073900
      7 C03         -7.2360    -2.7880    -1.0870 ca         1 Q0M       0.045000
      8 C04         -5.8490    -2.5260    -1.0380 ca         1 Q0M      -0.334500
      9 C05         -5.1470    -2.7040     0.1700 ca         1 Q0M       0.259100
     10 C06         -5.8350    -3.1400     1.3240 ca         1 Q0M      -0.003000
     11 C07         -4.4530    -7.4410    -2.5670 ca         1 Q0M      -0.025000
     12 C08         -3.1720    -6.8820    -2.3270 ca         1 Q0M      -0.251600
     13 C09         -3.0160    -5.4810    -2.4390 ca         1 Q0M       0.196100
     14 C11         -5.3640    -5.2390    -3.0320 ca         1 Q0M      -0.035000
     15 C12         -5.5660    -6.6330    -2.9230 ca         1 Q0M      -0.104300
     16 C14         -1.1550   -10.0800    -1.5100 c3         1 Q0M       0.091300
     17 C16         -7.7550    -6.6590    -4.4450 cy         1 Q0M      -0.069900
     18 C18         -8.1480    -6.5020    -2.3500 cy         1 Q0M      -0.069900
     19 C19         -7.0340    -8.6910    -3.0740 c1         1 Q0M       0.321900
     20 N01         -3.9200    -3.2620    -2.8580 nu         1 Q0M      -0.822100
     21 N02         -2.1950    -9.1090    -1.8630 ns         1 Q0M      -0.471900
     22 N03         -7.1000    -9.8530    -3.0000 n1         1 Q0M      -0.471000
     23 O01         -3.8030    -2.4810     0.2390 oh         1 Q0M      -0.501100
     24 O02         -5.9380    -2.0440    -3.6720 o          1 Q0M      -0.526500
     25 O03         -4.1330    -0.8840    -2.2720 o          1 Q0M      -0.526500
     26 O04         -1.7940    -4.9110    -2.1900 oh         1 Q0M      -0.574100
     27 O05         -0.8850    -7.2710    -1.7270 o          1 Q0M      -0.653100
     28 S01         -5.0100    -2.0270    -2.5380 sy         1 Q0M       1.155600
     29 Cl1         -4.9760    -3.3780     2.8480 cl         1 Q0M      -0.184000
     30 H1          -9.7800    -5.8700    -3.7910 hc         1 Q0M       0.061200
     31 H2          -9.6210    -7.6340    -3.6300 hc         1 Q0M       0.061200
     32 H3          -7.7380    -3.7430     2.1590 ha         1 Q0M       0.146000
     33 H4          -7.7980    -2.6620    -2.0110 ha         1 Q0M       0.160000
     34 H5          -4.5790    -8.5140    -2.4690 ha         1 Q0M       0.119000
     35 H6          -6.1930    -4.5970    -3.3020 ha         1 Q0M       0.153000
     36 H7          -1.5800   -11.0920    -1.5110 h1         1 Q0M       0.050367
     37 H8          -0.3380   -10.0290    -2.2410 h1         1 Q0M       0.050367
     38 H9          -0.7630    -9.8540    -0.5100 h1         1 Q0M       0.050367
     39 H10         -7.7480    -7.3120    -5.3250 hc         1 Q0M       0.066700
     40 H11         -7.4670    -5.6570    -4.7790 hc         1 Q0M       0.066700
     41 H12         -7.9610    -5.4560    -2.0890 hc         1 Q0M       0.066700
     42 H13         -8.4750    -7.0160    -1.4380 hc         1 Q0M       0.066700
     43 H14         -3.0400    -2.9370    -2.4770 hn         1 Q0M       0.500000
     44 H15         -3.1260    -9.4510    -2.0600 hn         1 Q0M       0.329500
     45 H16         -3.5220    -2.6550     1.1630 ho         1 Q0M       0.498000
     46 H17         -1.1910    -5.6740    -1.9650 ho         1 Q0M       0.539000
     47 Br1         -9.7840    -3.6020    -0.0180 br         1 Q0M      -0.085100
@<TRIPOS>BOND
     1     1    13 ar  
     2     1    14 ar  
     3     1    20 1   
     4     2    12 1   
     5     2    21 1   
     6     2    27 2   
     7     3    17 1   
     8     3    18 1   
     9     3    30 1   
    10     3    31 1   
    11     4    15 1   
    12     4    17 1   
    13     4    18 1   
    14     4    19 1   
    15     5     6 ar  
    16     5    10 ar  
    17     5    32 1   
    18     6     7 ar  
    19     6    47 1   
    20     7     8 ar  
    21     7    33 1   
    22     8     9 ar  
    23     8    28 1   
    24     9    10 ar  
    25     9    23 1   
    26    10    29 1   
    27    11    12 ar  
    28    11    15 ar  
    29    11    34 1   
    30    12    13 ar  
    31    13    26 1   
    32    14    15 ar  
    33    14    35 1   
    34    16    21 1   
    35    16    36 1   
    36    16    37 1   
    37    16    38 1   
    38    17    39 1   
    39    17    40 1   
    40    18    41 1   
    41    18    42 1   
    42    19    22 3   
    43    20    28 1   
    44    20    43 1   
    45    21    44 1   
    46    23    45 1   
    47    24    28 2   
    48    25    28 2   
    49    26    46 1   
@<TRIPOS>SUBSTRUCTURE
     1 Q0M         1 TEMP              0 ****  ****    0 ROOT
