@<TRIPOS>MOLECULE
Q0N
   39    41     1     0     0
SMALL
No Charge or Current Charge


@<TRIPOS>ATOM
      1 C10         19.8320    15.6720    35.0240 cc         1 Q0N      -0.319500
      2 N12         20.0630    15.3550    37.1750 na         1 Q0N       0.145800
      3 C15         20.2900    14.7430    38.4950 c3         1 Q0N       0.085600
      4 C21         24.0630    12.5010    37.1840 c6         1 Q0N       0.153600
      5 C22         22.8290    13.0050    38.0050 c6         1 Q0N       0.134800
      6 C02         19.9520    14.3210    31.4780 ca         1 Q0N       0.429900
      7 N03         19.0230    15.0940    30.9090 nb         1 Q0N      -0.283000
      8 C04         18.4410    16.0070    31.7050 ca         1 Q0N       0.196900
      9 N05         18.7020    16.2120    33.0090 nb         1 Q0N      -0.245000
     10 C06         19.6450    15.4380    33.5860 ca         1 Q0N       0.325500
     11 C07         20.3110    14.4400    32.8310 ca         1 Q0N      -0.237000
     12 C08         21.3490    13.6200    33.3790 cg         1 Q0N       0.361000
     13 N09         22.1910    12.9350    33.8100 n1         1 Q0N      -0.499000
     14 C11         20.0950    14.6930    35.9420 cd         1 Q0N      -0.089000
     15 N13         19.7190    16.6980    37.0570 nd         1 Q0N      -0.542800
     16 C14         19.5780    16.8420    35.7550 cc         1 Q0N       0.305900
     17 C16         21.7070    14.9950    39.0620 c3         1 Q0N       0.153800
     18 N17         22.8390    14.4870    38.2370 n3         1 Q0N      -0.724600
     19 C18         24.1730    14.9420    38.7430 c6         1 Q0N       0.134800
     20 C19         25.3760    14.3890    37.9070 c6         1 Q0N       0.153600
     21 O20         24.9230    13.5950    36.7850 os         1 Q0N      -0.433000
     22 H1          19.5530    15.1540    39.1950 h1         1 Q0N       0.066700
     23 H2          20.1040    13.6660    38.4220 h1         1 Q0N       0.066700
     24 H3          23.7190    11.9730    36.2830 h1         1 Q0N       0.048450
     25 H4          24.6440    11.7890    37.7890 h1         1 Q0N       0.048450
     26 H5          21.9180    12.7070    37.4680 h1         1 Q0N       0.038700
     27 H6          22.8140    12.4730    38.9680 h1         1 Q0N       0.038700
     28 H7          20.0660    13.2740    29.7210 hn         1 Q0N       0.507000
     29 H8          21.0480    12.6390    30.9960 hn         1 Q0N       0.507000
     30 H9          17.6800    16.6400    31.2520 h5         1 Q0N       0.047100
     31 H10         20.2750    13.6280    35.8530 h4         1 Q0N       0.165000
     32 H11         19.2790    17.8070    35.3660 h4         1 Q0N       0.055100
     33 H12         21.8160    16.0800    39.1970 h1         1 Q0N       0.049700
     34 H13         21.7540    14.5490    40.0650 h1         1 Q0N       0.049700
     35 H15         24.2210    16.0410    38.7390 h1         1 Q0N       0.038700
     36 H16         24.3080    14.6270    39.7880 h1         1 Q0N       0.038700
     37 H17         26.0190    13.7700    38.5490 h1         1 Q0N       0.048450
     38 H18         25.9820    15.2240    37.5300 h1         1 Q0N       0.048450
     39 N01         20.5140    13.4210    30.6230 nv         1 Q0N      -1.070900
@<TRIPOS>BOND
     1     1    10 1   
     2     1    14 2   
     3     1    16 1   
     4     2     3 1   
     5     2    14 1   
     6     2    15 1   
     7     3    17 1   
     8     3    22 1   
     9     3    23 1   
    10     4     5 1   
    11     4    21 1   
    12     4    24 1   
    13     4    25 1   
    14     5    18 1   
    15     5    26 1   
    16     5    27 1   
    17     6     7 ar  
    18     6    11 ar  
    19     6    39 1   
    20     7     8 ar  
    21     8     9 ar  
    22     8    30 1   
    23     9    10 ar  
    24    10    11 ar  
    25    11    12 1   
    26    12    13 3   
    27    14    31 1   
    28    15    16 2   
    29    16    32 1   
    30    17    18 1   
    31    17    33 1   
    32    17    34 1   
    33    18    19 1   
    34    19    20 1   
    35    19    35 1   
    36    19    36 1   
    37    20    21 1   
    38    20    37 1   
    39    20    38 1   
    40    28    39 1   
    41    29    39 1   
@<TRIPOS>SUBSTRUCTURE
     1 Q0N         1 TEMP              0 ****  ****    0 ROOT
