@<TRIPOS>MOLECULE
Q0N
   39    41     1     0     0
SMALL
bcc


@<TRIPOS>ATOM
      1 C10         19.8090    15.4260    35.1480 cc         1 Q0N      -0.384800
      2 N12         19.9820    15.0850    37.2990 na         1 Q0N       0.124400
      3 C15         20.3070    14.5400    38.5990 c3         1 Q0N       0.056300
      4 C21         23.8380    12.6900    36.9940 c6         1 Q0N       0.130400
      5 C22         23.0200    13.0740    38.2250 c6         1 Q0N       0.134800
      6 C02         20.0980    14.3390    31.5300 ca         1 Q0N       0.758200
      7 N03         19.5910    15.4360    30.9590 nb         1 Q0N      -0.809000
      8 C04         19.2160    16.4040    31.7690 ca         1 Q0N       0.722900
      9 N05         19.2730    16.4300    33.0880 nb         1 Q0N      -0.771000
     10 C06         19.7710    15.3510    33.7020 ca         1 Q0N       0.653800
     11 C07         20.2110    14.2580    32.9440 ca         1 Q0N      -0.367600
     12 C08         20.7720    13.0950    33.5150 cg         1 Q0N       0.271800
     13 N09         21.2410    12.1260    33.9330 n1         1 Q0N      -0.409800
     14 C11         20.1600    14.4950    36.1170 cd         1 Q0N      -0.056300
     15 N13         19.5600    16.3480    37.1900 nd         1 Q0N      -0.542800
     16 C14         19.4430    16.5660    35.9020 cc         1 Q0N       0.371200
     17 C16         21.7020    14.9450    39.0540 c3         1 Q0N       0.153800
     18 N17         22.7360    14.4920    38.1560 n3         1 Q0N      -0.724600
     19 C18         23.9630    15.2660    38.2950 c6         1 Q0N       0.134800
     20 C19         25.1450    14.4860    37.7130 c6         1 Q0N       0.130400
     21 O20         24.7410    13.7100    36.6120 os         1 Q0N      -0.386600
     22 H1          19.5670    14.9010    39.3110 h1         1 Q0N       0.066700
     23 H2          20.2000    13.4570    38.5420 h1         1 Q0N       0.066700
     24 H3          23.1720    12.5270    36.1440 h1         1 Q0N       0.048450
     25 H4          24.3690    11.7490    37.1880 h1         1 Q0N       0.048450
     26 H5          22.0960    12.4940    38.2130 h1         1 Q0N       0.038700
     27 H6          23.5390    12.7990    39.1570 h1         1 Q0N       0.038700
     28 H7          20.3860    13.4600    29.7320 hn         1 Q0N       0.451800
     29 H8          20.8800    12.4910    31.0670 hn         1 Q0N       0.451800
     30 H9          18.8080    17.2900    31.2930 h5         1 Q0N       0.047100
     31 H10         20.5000    13.4750    36.0600 h4         1 Q0N       0.183000
     32 H11         19.1000    17.5190    35.5320 h4         1 Q0N       0.055100
     33 H12         21.7430    16.0360    39.1050 h1         1 Q0N       0.049700
     34 H13         21.8420    14.5810    40.0840 h1         1 Q0N       0.049700
     35 H15         23.8340    16.2220    37.7800 h1         1 Q0N       0.038700
     36 H16         24.1960    15.4970    39.3460 h1         1 Q0N       0.038700
     37 H17         25.6050    13.8580    38.4870 h1         1 Q0N       0.048450
     38 H18         25.9160    15.1770    37.3690 h1         1 Q0N       0.048450
     39 N01         20.4830    13.3510    30.7280 nv         1 Q0N      -0.960500
@<TRIPOS>BOND
     1     1    10 1   
     2     1    14 2   
     3     1    16 1   
     4     2     3 1   
     5     2    14 1   
     6     2    15 1   
     7     3    17 1   
     8     3    22 1   
     9     3    23 1   
    10     4     5 1   
    11     4    21 1   
    12     4    24 1   
    13     4    25 1   
    14     5    18 1   
    15     5    26 1   
    16     5    27 1   
    17     6     7 ar  
    18     6    11 ar  
    19     6    39 1   
    20     7     8 ar  
    21     8     9 ar  
    22     8    30 1   
    23     9    10 ar  
    24    10    11 ar  
    25    11    12 1   
    26    12    13 3   
    27    14    31 1   
    28    15    16 2   
    29    16    32 1   
    30    17    18 1   
    31    17    33 1   
    32    17    34 1   
    33    18    19 1   
    34    19    20 1   
    35    19    35 1   
    36    19    36 1   
    37    20    21 1   
    38    20    37 1   
    39    20    38 1   
    40    28    39 1   
    41    29    39 1   
@<TRIPOS>SUBSTRUCTURE
     1 Q0N         1 TEMP              0 ****  ****    0 ROOT
