@<TRIPOS>MOLECULE
Q0O
   36    39     1     0     0
SMALL
abcg2


@<TRIPOS>ATOM
      1 C10          2.7140     5.5390    21.4620 ca         1 Q0O      -0.084500
      2 C11          2.2590     5.0790    19.1310 ca         1 Q0O      -0.109000
      3 C13          7.1450     8.1080    22.9390 ca         1 Q0O      -0.109000
      4 C16          1.8950     4.9970    20.4730 ca         1 Q0O      -0.104000
      5 C17          6.1470     7.6300    23.7910 ca         1 Q0O      -0.104000
      6 C18          6.4040     5.5790    15.2140 c2         1 Q0O       0.161900
      7 C19          6.6930     7.9870    15.0270 c          1 Q0O       0.681300
      8 C20          6.4420     6.6830    14.4430 ce         1 Q0O      -0.449200
      9 C1           5.5610     6.9790    19.6410 cc         1 Q0O       0.016600
     10 C2           4.2680     6.2610    19.7240 ca         1 Q0O      -0.065800
     11 C3           5.9340     7.2860    21.0420 ca         1 Q0O      -0.065800
     12 C4           6.3020     7.3300    18.5800 c2         1 Q0O      -0.179200
     13 C5           3.8930     6.1670    21.0860 cp         1 Q0O      -0.033500
     14 C6           3.4460     5.7030    18.7480 ca         1 Q0O      -0.085500
     15 C7           4.9290     6.8040    21.9030 cp         1 Q0O      -0.033500
     16 C8           7.0450     7.9390    21.5590 ca         1 Q0O      -0.085500
     17 C9           6.0120     7.0470    17.1460 c6         1 Q0O       0.225500
     18 C12          5.0300     6.9740    23.2790 ca         1 Q0O      -0.084500
     19 C14          6.5180     5.6800    16.6980 c6         1 Q0O      -0.081200
     20 O15          6.6530     8.1030    16.3810 os         1 Q0O      -0.453100
     21 O22          6.9750     8.9810    14.3830 o          1 Q0O      -0.497000
     22 H27          2.4340     5.4680    22.5060 ha         1 Q0O       0.118500
     23 H28          1.6190     4.6470    18.3720 ha         1 Q0O       0.115500
     24 H30          8.0060     8.6160    23.3550 ha         1 Q0O       0.115500
     25 H33          0.9720     4.5030    20.7500 ha         1 Q0O       0.115500
     26 H34          6.2430     7.7720    24.8600 ha         1 Q0O       0.115500
     27 H35          6.3960     6.6290    13.3630 ha         1 Q0O       0.211000
     28 H23          7.2380     7.8510    18.7500 ha         1 Q0O       0.200000
     29 H24          3.7030     5.7330    17.7000 ha         1 Q0O       0.114000
     30 H25          7.8260     8.3150    20.9100 ha         1 Q0O       0.114000
     31 H26          4.9430     7.1180    16.9340 h1         1 Q0O       0.065700
     32 H29          4.2580     6.6040    23.9420 ha         1 Q0O       0.118500
     33 H31          7.5620     5.5380    16.9950 hc         1 Q0O       0.089700
     34 H32          5.9320     4.8950    17.1750 hc         1 Q0O       0.089700
     35 H36          6.2700     4.3120    13.7880 ho         1 Q0O       0.479000
     36 O21          6.2950     4.3270    14.7580 oh         1 Q0O      -0.520100
@<TRIPOS>BOND
     1     1     4 ar  
     2     1    13 ar  
     3     1    22 1   
     4     2     4 ar  
     5     2    14 ar  
     6     2    23 1   
     7     3     5 ar  
     8     3    16 ar  
     9     3    24 1   
    10     4    25 1   
    11     5    18 ar  
    12     5    26 1   
    13     6     8 2   
    14     6    19 1   
    15     6    36 1   
    16     7     8 1   
    17     7    20 1   
    18     7    21 2   
    19     8    27 1   
    20     9    10 1   
    21     9    11 1   
    22     9    12 2   
    23    10    13 ar  
    24    10    14 ar  
    25    11    15 ar  
    26    11    16 ar  
    27    12    17 1   
    28    12    28 1   
    29    13    15 1   
    30    14    29 1   
    31    15    18 ar  
    32    16    30 1   
    33    17    19 1   
    34    17    20 1   
    35    17    31 1   
    36    18    32 1   
    37    19    33 1   
    38    19    34 1   
    39    35    36 1   
@<TRIPOS>SUBSTRUCTURE
     1 Q0O         1 TEMP              0 ****  ****    0 ROOT
