@<TRIPOS>MOLECULE
Q0O
   36    39     1     0     0
SMALL
No Charge or Current Charge


@<TRIPOS>ATOM
      1 C10          2.5640     5.7820    21.4660 ca         1 Q0O      -0.084500
      2 C11          2.3900     4.7120    19.2710 ca         1 Q0O      -0.109000
      3 C13          7.1160     8.3030    22.8520 ca         1 Q0O      -0.109000
      4 C16          1.8270     5.0330    20.5270 ca         1 Q0O      -0.104000
      5 C17          5.9690     8.1640    23.6690 ca         1 Q0O      -0.104000
      6 C18          6.3230     5.8220    14.9490 c2         1 Q0O       0.161900
      7 C19          6.5930     8.2350    15.4310 c          1 Q0O       0.681300
      8 C20          6.3210     7.0910    14.5240 ce         1 Q0O      -0.449200
      9 C1           5.7710     6.4640    19.7730 cc         1 Q0O       0.016600
     10 C2           4.4130     5.9090    19.8620 ca         1 Q0O      -0.065800
     11 C3           6.0020     7.0920    21.0760 ca         1 Q0O      -0.065800
     12 C4           6.6210     6.4840    18.7090 c2         1 Q0O      -0.179200
     13 C5           3.8580     6.2070    21.1150 cp         1 Q0O      -0.033500
     14 C6           3.6900     5.1410    18.9300 ca         1 Q0O      -0.085500
     15 C7           4.8670     6.9580    21.8840 cp         1 Q0O      -0.033500
     16 C8           7.1410     7.7680    21.5460 ca         1 Q0O      -0.085500
     17 C9           6.1710     6.6610    17.2700 c6         1 Q0O       0.225500
     18 C12          4.8300     7.4860    23.1880 ca         1 Q0O      -0.084500
     19 C14          6.6080     5.4800    16.3870 c6         1 Q0O      -0.081200
     20 O15          6.7000     7.9020    16.7590 os         1 Q0O      -0.453100
     21 O22          6.7270     9.3780    15.0270 o          1 Q0O      -0.497000
     22 H27          2.1460     6.0190    22.4410 ha         1 Q0O       0.118500
     23 H28          1.8160     4.1210    18.5600 ha         1 Q0O       0.115500
     24 H30          7.9880     8.8290    23.2350 ha         1 Q0O       0.115500
     25 H33          0.8240     4.6920    20.7750 ha         1 Q0O       0.115500
     26 H34          5.9650     8.5810    24.6730 ha         1 Q0O       0.115500
     27 H35          6.1520     7.3540    13.4830 ha         1 Q0O       0.211000
     28 H23          7.6060     6.9070    18.8910 ha         1 Q0O       0.200000
     29 H24          4.1140     4.8660    17.9700 ha         1 Q0O       0.114000
     30 H25          8.0260     7.8820    20.9260 ha         1 Q0O       0.114000
     31 H26          5.0760     6.7420    17.2290 h1         1 Q0O       0.065700
     32 H29          3.9450     7.3740    23.8090 ha         1 Q0O       0.118500
     33 H31          7.6820     5.2900    16.5130 hc         1 Q0O       0.089700
     34 H32          6.0830     4.5630    16.6850 hc         1 Q0O       0.089700
     35 H36          5.9370     5.1190    13.2500 ho         1 Q0O       0.479000
     36 O21          6.1030     4.7710    14.1530 oh         1 Q0O      -0.520100
@<TRIPOS>BOND
     1     1     4 ar  
     2     1    13 ar  
     3     1    22 1   
     4     2     4 ar  
     5     2    14 ar  
     6     2    23 1   
     7     3     5 ar  
     8     3    16 ar  
     9     3    24 1   
    10     4    25 1   
    11     5    18 ar  
    12     5    26 1   
    13     6     8 2   
    14     6    19 1   
    15     6    36 1   
    16     7     8 1   
    17     7    20 1   
    18     7    21 2   
    19     8    27 1   
    20     9    10 1   
    21     9    11 1   
    22     9    12 2   
    23    10    13 ar  
    24    10    14 ar  
    25    11    15 ar  
    26    11    16 ar  
    27    12    17 1   
    28    12    28 1   
    29    13    15 1   
    30    14    29 1   
    31    15    18 ar  
    32    16    30 1   
    33    17    19 1   
    34    17    20 1   
    35    17    31 1   
    36    18    32 1   
    37    19    33 1   
    38    19    34 1   
    39    35    36 1   
@<TRIPOS>SUBSTRUCTURE
     1 Q0O         1 TEMP              0 ****  ****    0 ROOT
