@<TRIPOS>MOLECULE
Q0Q
   36    38     1     0     0
SMALL
No Charge or Current Charge


@<TRIPOS>ATOM
      1 C10         20.1170    15.6720    34.3490 cc         1 Q0Q      -0.314500
      2 N12         20.6510    15.2140    36.4220 na         1 Q0Q       0.139800
      3 C13         21.1030    14.4970    37.6420 c3         1 Q0Q       0.153600
      4 C15         22.6080    14.2180    37.6320 ca         1 Q0Q      -0.118300
      5 C17         24.4700    12.6700    37.9620 ca         1 Q0Q      -0.114000
      6 C20         23.5310    15.2340    37.3010 ca         1 Q0Q      -0.085000
      7 C22         19.9850    16.7940    35.1780 cc         1 Q0Q       0.300900
      8 C02         19.7590    14.5460    30.7460 ca         1 Q0Q       0.429900
      9 C03         20.3090    14.6030    32.0370 ca         1 Q0Q      -0.237000
     10 C04         21.4540    13.8130    32.3760 cg         1 Q0Q       0.355000
     11 N05         22.3850    13.1590    32.6390 n1         1 Q0Q      -0.492000
     12 C06         19.7250    15.5230    32.9430 ca         1 Q0Q       0.321500
     13 N07         18.6780    16.2850    32.5620 nb         1 Q0Q      -0.242000
     14 C08         18.2340    16.1430    31.3000 ca         1 Q0Q       0.196900
     15 N09         18.7250    15.3060    30.3700 nb         1 Q0Q      -0.282000
     16 C11         20.4990    14.6360    35.1560 cd         1 Q0Q      -0.113000
     17 C14         20.6800    15.1730    38.9670 c3         1 Q0Q      -0.093100
     18 C16         23.0890    12.9350    37.9660 ca         1 Q0Q      -0.085000
     19 C18         25.3810    13.6840    37.6260 ca         1 Q0Q      -0.096000
     20 C19         24.9110    14.9660    37.2970 ca         1 Q0Q      -0.114000
     21 N21         20.3210    16.5700    36.4310 nd         1 Q0Q      -0.534800
     22 H1          20.5910    13.5270    37.6160 h1         1 Q0Q       0.061700
     23 H2          24.8320    11.6770    38.2190 ha         1 Q0Q       0.116000
     24 H3          23.1820    16.2330    37.0480 ha         1 Q0Q       0.120000
     25 H4          19.6460    17.7830    34.8960 h4         1 Q0Q       0.056100
     26 H5          19.6520    13.6090    28.9270 hn         1 Q0Q       0.507500
     27 H6          20.8350    12.9500    30.0040 hn         1 Q0Q       0.507500
     28 H7          17.3900    16.7650    31.0040 h5         1 Q0Q       0.048100
     29 H8          20.6540    13.5790    34.9710 h4         1 Q0Q       0.165000
     30 H9          20.9600    14.5460    39.8210 hc         1 Q0Q       0.054367
     31 H10         21.1700    16.1470    39.0850 hc         1 Q0Q       0.054367
     32 H11         19.5940    15.3230    38.9960 hc         1 Q0Q       0.054367
     33 H12         22.3940    12.1410    38.2290 ha         1 Q0Q       0.120000
     34 H13         26.4500    13.4780    37.6240 ha         1 Q0Q       0.114000
     35 H14         25.6160    15.7540    37.0400 ha         1 Q0Q       0.116000
     36 N01         20.2230    13.7260    29.7620 nv         1 Q0Q      -1.069900
@<TRIPOS>BOND
     1     1     7 1   
     2     1    12 1   
     3     1    16 2   
     4     2     3 1   
     5     2    16 1   
     6     2    21 1   
     7     3     4 1   
     8     3    17 1   
     9     3    22 1   
    10     4     6 ar  
    11     4    18 ar  
    12     5    18 ar  
    13     5    19 ar  
    14     5    23 1   
    15     6    20 ar  
    16     6    24 1   
    17     7    21 2   
    18     7    25 1   
    19     8     9 ar  
    20     8    15 ar  
    21     8    36 1   
    22     9    10 1   
    23     9    12 ar  
    24    10    11 3   
    25    12    13 ar  
    26    13    14 ar  
    27    14    15 ar  
    28    14    28 1   
    29    16    29 1   
    30    17    30 1   
    31    17    31 1   
    32    17    32 1   
    33    18    33 1   
    34    19    20 ar  
    35    19    34 1   
    36    20    35 1   
    37    26    36 1   
    38    27    36 1   
@<TRIPOS>SUBSTRUCTURE
     1 Q0Q         1 TEMP              0 ****  ****    0 ROOT
