@<TRIPOS>MOLECULE
Q0Q
   36    38     1     0     0
SMALL
bcc


@<TRIPOS>ATOM
      1 C10         20.2270    15.4370    34.2920 cc         1 Q0Q      -0.379800
      2 N12         20.7950    14.9660    36.3490 na         1 Q0Q       0.118400
      3 C13         21.2290    14.2700    37.5590 c3         1 Q0Q       0.124300
      4 C15         22.7380    14.3090    37.6750 ca         1 Q0Q      -0.118300
      5 C17         24.8580    13.1540    37.5850 ca         1 Q0Q      -0.132000
      6 C20         23.4130    15.4940    37.9560 ca         1 Q0Q      -0.103000
      7 C22         20.3720    16.5980    35.0870 cc         1 Q0Q       0.366200
      8 C02         19.4520    14.4760    30.7120 ca         1 Q0Q       0.758200
      9 C03         19.8780    14.3160    32.0590 ca         1 Q0Q      -0.367600
     10 C04         20.3410    13.0510    32.4830 cg         1 Q0Q       0.265800
     11 N05         20.7150    12.0010    32.7850 n1         1 Q0Q      -0.402800
     12 C06         19.8360    15.4360    32.8970 ca         1 Q0Q       0.649800
     13 N07         19.4250    16.6150    32.4190 nb         1 Q0Q      -0.768000
     14 C08         19.0630    16.6590    31.1490 ca         1 Q0Q       0.722900
     15 N09         19.0450    15.6720    30.2760 nb         1 Q0Q      -0.808000
     16 C11         20.5190    14.4030    35.1710 cd         1 Q0Q      -0.080300
     17 C14         20.5120    14.8140    38.7850 c3         1 Q0Q      -0.093100
     18 C16         23.4720    13.1420    37.4910 ca         1 Q0Q      -0.103000
     19 C18         25.5240    14.3380    37.8640 ca         1 Q0Q      -0.114000
     20 C19         24.7980    15.5080    38.0480 ca         1 Q0Q      -0.132000
     21 N21         20.7210    16.2970    36.3150 nd         1 Q0Q      -0.534800
     22 H1          20.9240    13.2320    37.4130 h1         1 Q0Q       0.061700
     23 H2          25.4150    12.2360    37.4400 ha         1 Q0Q       0.134000
     24 H3          22.8630    16.4160    38.0980 ha         1 Q0Q       0.138000
     25 H4          20.2330    17.6250    34.7870 h4         1 Q0Q       0.056100
     26 H5          19.1340    13.6340    28.9020 hn         1 Q0Q       0.452300
     27 H6          19.7180    12.5330    30.0890 hn         1 Q0Q       0.452300
     28 H7          18.7370    17.6250    30.7790 h5         1 Q0Q       0.048100
     29 H8          20.5310    13.3320    35.0580 h4         1 Q0Q       0.183000
     30 H9          20.7940    14.2220    39.6540 hc         1 Q0Q       0.054367
     31 H10         20.7710    15.8530    38.9830 hc         1 Q0Q       0.054367
     32 H11         19.4320    14.7440    38.6610 hc         1 Q0Q       0.054367
     33 H12         22.9570    12.2140    37.2720 ha         1 Q0Q       0.138000
     34 H13         26.6040    14.3510    37.9370 ha         1 Q0Q       0.132000
     35 H14         25.3110    16.4360    38.2660 ha         1 Q0Q       0.134000
     36 N01         19.4460    13.4700    29.8440 nv         1 Q0Q      -0.959500
@<TRIPOS>BOND
     1     1     7 1   
     2     1    12 1   
     3     1    16 2   
     4     2     3 1   
     5     2    16 1   
     6     2    21 1   
     7     3     4 1   
     8     3    17 1   
     9     3    22 1   
    10     4     6 ar  
    11     4    18 ar  
    12     5    18 ar  
    13     5    19 ar  
    14     5    23 1   
    15     6    20 ar  
    16     6    24 1   
    17     7    21 2   
    18     7    25 1   
    19     8     9 ar  
    20     8    15 ar  
    21     8    36 1   
    22     9    10 1   
    23     9    12 ar  
    24    10    11 3   
    25    12    13 ar  
    26    13    14 ar  
    27    14    15 ar  
    28    14    28 1   
    29    16    29 1   
    30    17    30 1   
    31    17    31 1   
    32    17    32 1   
    33    18    33 1   
    34    19    20 ar  
    35    19    34 1   
    36    20    35 1   
    37    26    36 1   
    38    27    36 1   
@<TRIPOS>SUBSTRUCTURE
     1 Q0Q         1 TEMP              0 ****  ****    0 ROOT
