@<TRIPOS>MOLECULE
Q0R
   24    25     1     0     0
SMALL
No Charge or Current Charge


@<TRIPOS>ATOM
      1 CAD         -0.9770    32.8170     8.9590 c5         1 Q0R      -0.108400
      2 CAE          0.4800    33.3350     8.7800 c5         1 Q0R      -0.111400
      3 CAF         -1.4600    32.7360     7.4920 c5         1 Q0R       0.187800
      4 CAG          0.8370    32.9620     7.3080 c5         1 Q0R       0.129800
      5 CAH         -2.7310    31.8780     7.4700 ca         1 Q0R      -0.076300
      6 CAI         -3.9930    32.4770     7.2490 ca         1 Q0R       0.147000
      7 CAJ         -2.6800    30.4780     7.6760 ca         1 Q0R      -0.116000
      8 CAK         -3.8550    29.7090     7.6550 ca         1 Q0R       0.152000
      9 CAL         -5.1680    31.7040     7.2290 ca         1 Q0R      -0.120000
     10 CAM         -5.1000    30.3150     7.4320 ca         1 Q0R      -0.124000
     11 FAA         -4.0930    33.8120     7.0590 f          1 Q0R      -0.183000
     12 FAB         -3.7860    28.3750     7.8540 f          1 Q0R      -0.180000
     13 NAC         -0.2900    32.1270     6.8340 n7         1 Q0R      -0.817400
     14 H1          -1.5930    33.4910     9.5650 hc         1 Q0R       0.055700
     15 H2          -0.9840    31.8370     9.4520 hc         1 Q0R       0.055700
     16 H3           1.1640    32.8690     9.4980 hc         1 Q0R       0.049700
     17 H4           0.5450    34.4190     8.9310 hc         1 Q0R       0.049700
     18 H5          -1.6490    33.7410     7.0840 h1         1 Q0R       0.083700
     19 H6           1.7970    32.4300     7.2340 h1         1 Q0R       0.057200
     20 H7           0.9170    33.8720     6.6960 h1         1 Q0R       0.057200
     21 H8          -1.7320    29.9790     7.8560 ha         1 Q0R       0.141000
     22 H9          -6.1280    32.1850     7.0580 ha         1 Q0R       0.137000
     23 H10         -6.0040    29.7120     7.4180 ha         1 Q0R       0.138000
     24 H11         -0.1720    31.1850     7.2200 hn         1 Q0R       0.395000
@<TRIPOS>BOND
     1     1     2 1   
     2     1     3 1   
     3     1    14 1   
     4     1    15 1   
     5     2     4 1   
     6     2    16 1   
     7     2    17 1   
     8     3     5 1   
     9     3    13 1   
    10     3    18 1   
    11     4    13 1   
    12     4    19 1   
    13     4    20 1   
    14     5     6 ar  
    15     5     7 ar  
    16     6     9 ar  
    17     6    11 1   
    18     7     8 ar  
    19     7    21 1   
    20     8    10 ar  
    21     8    12 1   
    22     9    10 ar  
    23     9    22 1   
    24    10    23 1   
    25    13    24 1   
@<TRIPOS>SUBSTRUCTURE
     1 Q0R         1 TEMP              0 ****  ****    0 ROOT
