@<TRIPOS>MOLECULE
Q0R
   24    25     1     0     0
SMALL
abcg2


@<TRIPOS>ATOM
      1 CAD         -1.0940    33.2090     8.8470 c5         1 Q0R      -0.108400
      2 CAE          0.4130    33.5260     8.7480 c5         1 Q0R      -0.111400
      3 CAF         -1.4260    32.5960     7.4630 c5         1 Q0R       0.187800
      4 CAG          0.8790    32.7920     7.4610 c5         1 Q0R       0.129800
      5 CAH         -2.6760    31.7590     7.4370 ca         1 Q0R      -0.076300
      6 CAI         -3.9200    32.3660     7.5860 ca         1 Q0R       0.147000
      7 CAJ         -2.6700    30.3730     7.2810 ca         1 Q0R      -0.116000
      8 CAK         -3.8650    29.6760     7.2930 ca         1 Q0R       0.152000
      9 CAL         -5.1140    31.6730     7.5980 ca         1 Q0R      -0.120000
     10 CAM         -5.0920    30.2890     7.4490 ca         1 Q0R      -0.124000
     11 FAA         -3.9660    33.7190     7.7210 f          1 Q0R      -0.183000
     12 FAB         -3.8250    28.3270     7.1370 f          1 Q0R      -0.180000
     13 NAC         -0.2090    31.8810     7.0600 n7         1 Q0R      -0.817400
     14 H1          -1.7020    34.0850     9.0670 hc         1 Q0R       0.055700
     15 H2          -1.2880    32.4610     9.6180 hc         1 Q0R       0.055700
     16 H3           0.9480    33.1630     9.6260 hc         1 Q0R       0.049700
     17 H4           0.5950    34.5980     8.6720 hc         1 Q0R       0.049700
     18 H5          -1.5590    33.4210     6.7540 h1         1 Q0R       0.083700
     19 H6           1.8010    32.2290     7.5950 h1         1 Q0R       0.057200
     20 H7           1.0400    33.5130     6.6560 h1         1 Q0R       0.057200
     21 H8          -1.7470    29.8280     7.1390 ha         1 Q0R       0.141000
     22 H9          -6.0460    32.2090     7.7180 ha         1 Q0R       0.137000
     23 H10         -6.0030    29.7070     7.4510 ha         1 Q0R       0.138000
     24 H11         -0.1290    31.0440     7.6310 hn         1 Q0R       0.395000
@<TRIPOS>BOND
     1     1     2 1   
     2     1     3 1   
     3     1    14 1   
     4     1    15 1   
     5     2     4 1   
     6     2    16 1   
     7     2    17 1   
     8     3     5 1   
     9     3    13 1   
    10     3    18 1   
    11     4    13 1   
    12     4    19 1   
    13     4    20 1   
    14     5     6 ar  
    15     5     7 ar  
    16     6     9 ar  
    17     6    11 1   
    18     7     8 ar  
    19     7    21 1   
    20     8    10 ar  
    21     8    12 1   
    22     9    10 ar  
    23     9    22 1   
    24    10    23 1   
    25    13    24 1   
@<TRIPOS>SUBSTRUCTURE
     1 Q0R         1 TEMP              0 ****  ****    0 ROOT
