@<TRIPOS>MOLECULE
Q0T
   32    33     1     0     0
SMALL
abcg2


@<TRIPOS>ATOM
      1 C10         19.7470    15.1260    32.9840 ca         1 Q0T       0.318500
      2 C17         18.9080    16.2500    31.2020 ca         1 Q0T       0.197900
      3 O01         23.5460    14.3420    36.5380 o          1 Q0T      -0.458000
      4 C02         22.9040    14.1450    37.5330 c          1 Q0T       0.577100
      5 O03         23.3850    13.7620    38.6990 os         1 Q0T      -0.449100
      6 C04         24.8030    13.5430    38.8240 c3         1 Q0T       0.168600
      7 C05         25.5620    14.8330    39.0430 c3         1 Q0T      -0.123100
      8 N07         20.8720    14.8670    36.4080 na         1 Q0T       0.137800
      9 C08         20.5270    14.2300    35.2850 cc         1 Q0T      -0.099000
     10 C09         20.2080    15.2080    34.3570 cd         1 Q0T      -0.304500
     11 C11         19.7320    13.9550    32.2190 ca         1 Q0T      -0.233000
     12 C12         20.1940    12.7090    32.6990 cg         1 Q0T       0.353000
     13 N13         20.5630    11.6720    33.0470 n1         1 Q0T      -0.488000
     14 C14         19.2450    14.0380    30.8860 ca         1 Q0T       0.429900
     15 N15         19.1860    12.9820    30.0830 nv         1 Q0T      -1.067900
     16 N16         18.8330    15.2120    30.3960 nb         1 Q0T      -0.280000
     17 N18         19.3320    16.2800    32.4530 nb         1 Q0T      -0.241000
     18 C19         20.4200    16.4180    35.0610 cd         1 Q0T       0.309900
     19 N20         20.8300    16.1970    36.2860 nc         1 Q0T      -0.525800
     20 H1          18.5780    17.1970    30.7880 h5         1 Q0T       0.049100
     21 H2          25.1740    13.0070    37.9500 h1         1 Q0T       0.061200
     22 H3          24.9000    12.8870    39.6870 h1         1 Q0T       0.061200
     23 H4          26.6130    14.6000    39.2160 hc         1 Q0T       0.051700
     24 H5          25.5050    15.4940    38.1800 hc         1 Q0T       0.051700
     25 H6          25.1910    15.3660    39.9180 hc         1 Q0T       0.051700
     26 H7          21.1020    14.8910    38.4600 h1         1 Q0T       0.098200
     27 H8          20.9520    13.2900    37.7500 h1         1 Q0T       0.098200
     28 H9          20.5120    13.1540    35.2450 h4         1 Q0T       0.167000
     29 H10         18.8350    13.0940    29.1470 hn         1 Q0T       0.508000
     30 H11         19.4590    12.0570    30.3720 hn         1 Q0T       0.508000
     31 H12         20.2820    17.4240    34.6970 h4         1 Q0T       0.059100
     32 C06         21.3930    14.2780    37.6070 c3         1 Q0T       0.016600
@<TRIPOS>BOND
     1     1    10 1   
     2     1    11 ar  
     3     1    17 ar  
     4     2    16 ar  
     5     2    17 ar  
     6     2    20 1   
     7     3     4 2   
     8     4     5 1   
     9     4    32 1   
    10     5     6 1   
    11     6     7 1   
    12     6    21 1   
    13     6    22 1   
    14     7    23 1   
    15     7    24 1   
    16     7    25 1   
    17     8     9 1   
    18     8    19 1   
    19     8    32 1   
    20     9    10 2   
    21     9    28 1   
    22    10    18 1   
    23    11    12 1   
    24    11    14 ar  
    25    12    13 3   
    26    14    15 1   
    27    14    16 ar  
    28    15    29 1   
    29    15    30 1   
    30    18    19 2   
    31    18    31 1   
    32    26    32 1   
    33    27    32 1   
@<TRIPOS>SUBSTRUCTURE
     1 Q0T         1 TEMP              0 ****  ****    0 ROOT
