@<TRIPOS>MOLECULE
Q0T
   32    33     1     0     0
SMALL
No Charge or Current Charge


@<TRIPOS>ATOM
      1 C10         19.7450    15.1140    32.9360 ca         1 Q0T       0.318500
      2 C17         18.8960    16.2810    31.1330 ca         1 Q0T       0.197900
      3 O01         23.6530    14.0930    36.5800 o          1 Q0T      -0.458000
      4 C02         22.9650    14.0800    37.5940 c          1 Q0T       0.577100
      5 O03         23.4300    13.7370    38.8410 os         1 Q0T      -0.449100
      6 C04         24.8370    13.4770    39.0240 c3         1 Q0T       0.168600
      7 C05         25.5950    14.8200    39.0400 c3         1 Q0T      -0.123100
      8 N07         20.9350    14.9270    36.3850 na         1 Q0T       0.137800
      9 C08         20.6750    14.2500    35.1980 cc         1 Q0T      -0.099000
     10 C09         20.1930    15.2190    34.3490 cd         1 Q0T      -0.304500
     11 C11         19.7320    13.9340    32.1440 ca         1 Q0T      -0.233000
     12 C12         20.1670    12.6590    32.6250 cg         1 Q0T       0.353000
     13 N13         20.5140    11.6080    32.9940 n1         1 Q0T      -0.488000
     14 C14         19.2650    14.0590    30.8230 ca         1 Q0T       0.429900
     15 N15         19.1940    13.0210    29.9440 nv         1 Q0T      -1.067900
     16 N16         18.8480    15.2200    30.3120 nb         1 Q0T      -0.280000
     17 N18         19.3200    16.2840    32.4090 nb         1 Q0T      -0.241000
     18 C19         20.1940    16.4200    35.1020 cd         1 Q0T       0.309900
     19 N20         20.6350    16.2680    36.3350 nc         1 Q0T      -0.525800
     20 H1          18.5580    17.2330    30.7270 h5         1 Q0T       0.049100
     21 H2          25.2330    12.8210    38.2360 h1         1 Q0T       0.061200
     22 H3          25.0000    12.9740    39.9860 h1         1 Q0T       0.061200
     23 H4          26.6550    14.6500    39.2660 hc         1 Q0T       0.051700
     24 H5          25.5350    15.3260    38.0700 hc         1 Q0T       0.051700
     25 H6          25.1850    15.4840    39.8100 hc         1 Q0T       0.051700
     26 H7          21.2510    15.0080    38.4650 h1         1 Q0T       0.098200
     27 H8          20.9570    13.3840    37.8170 h1         1 Q0T       0.098200
     28 H9          20.8610    13.1900    35.0960 h4         1 Q0T       0.167000
     29 H10         18.6700    13.1580    29.0820 hn         1 Q0T       0.508000
     30 H11         19.2560    12.0650    30.2880 hn         1 Q0T       0.508000
     31 H12         19.8820    17.4080    34.7830 h4         1 Q0T       0.059100
     32 C06         21.4590    14.3370    37.6250 c3         1 Q0T       0.016600
@<TRIPOS>BOND
     1     1    10 1   
     2     1    11 ar  
     3     1    17 ar  
     4     2    16 ar  
     5     2    17 ar  
     6     2    20 1   
     7     3     4 2   
     8     4     5 1   
     9     4    32 1   
    10     5     6 1   
    11     6     7 1   
    12     6    21 1   
    13     6    22 1   
    14     7    23 1   
    15     7    24 1   
    16     7    25 1   
    17     8     9 1   
    18     8    19 1   
    19     8    32 1   
    20     9    10 2   
    21     9    28 1   
    22    10    18 1   
    23    11    12 1   
    24    11    14 ar  
    25    12    13 3   
    26    14    15 1   
    27    14    16 ar  
    28    15    29 1   
    29    15    30 1   
    30    18    19 2   
    31    18    31 1   
    32    26    32 1   
    33    27    32 1   
@<TRIPOS>SUBSTRUCTURE
     1 Q0T         1 TEMP              0 ****  ****    0 ROOT
