@<TRIPOS>MOLECULE
Q0U
   84    88     1     0     0
SMALL
abcg2


@<TRIPOS>ATOM
      1 C14         -9.5910     6.9870    28.1830 c3         1 Q0U       0.225600
      2 C15        -10.1870     8.1710    28.9200 c5         1 Q0U       0.150300
      3 C17        -12.2490     9.0320    28.2700 c5         1 Q0U       0.315300
      4 C19        -12.7290     8.2860    25.9070 cc         1 Q0U       0.444700
      5 C02         -5.3340    12.2090    25.7970 c5         1 Q0U       0.129300
      6 C03         -3.9290    11.6070    25.8350 c5         1 Q0U       0.103300
      7 C05         -4.1520    10.3140    25.0500 c5         1 Q0U       0.113300
      8 C06         -4.6010     9.1490    25.9120 c3         1 Q0U       0.226600
      9 C21        -14.3450     9.5490    25.3960 ca         1 Q0U      -0.101600
     10 C22        -14.0160     9.8700    26.7030 ca         1 Q0U       0.119500
     11 C24        -15.5670    11.4200    26.8130 ca         1 Q0U       0.152900
     12 C26        -15.3850    10.2970    24.8140 ca         1 Q0U       0.431900
     13 C28        -12.5070     7.7930    29.1230 c5         1 Q0U       0.076300
     14 C30        -11.2230     7.7450    29.9540 c5         1 Q0U       0.106300
     15 C35         -5.7770    11.8290    24.3780 c5         1 Q0U       0.280300
     16 C37         -8.0140    12.7490    24.1810 ca         1 Q0U      -0.005800
     17 C38         -9.3850    12.6680    24.2280 ca         1 Q0U      -0.122500
     18 C39         -7.8130    10.4430    24.4700 ca         1 Q0U      -0.056500
     19 C40         -9.1760    10.3100    24.5230 ca         1 Q0U      -0.122500
     20 C41         -9.9920    11.4340    24.4170 ca         1 Q0U       0.007700
     21 C42        -11.4740    11.2470    24.5490 c3         1 Q0U       0.127300
     22 C46        -14.4720    14.7600    25.9270 c3         1 Q0U       0.046000
     23 C47        -14.0940    16.2130    25.7470 c3         1 Q0U       0.276000
     24 F48        -12.7750    16.4110    25.8660 f          1 Q0U      -0.118667
     25 F49        -14.6960    16.9920    26.6550 f          1 Q0U      -0.118667
     26 F50        -14.4450    16.6730    24.5380 f          1 Q0U      -0.118667
     27 N18        -12.9720     9.0480    27.0210 na         1 Q0U      -0.290300
     28 N20        -13.5280     8.5570    24.9170 nd         1 Q0U      -0.575100
     29 N23        -14.6030    10.7920    27.4630 nb         1 Q0U      -0.187000
     30 N25        -15.9810    11.2310    25.5620 nb         1 Q0U      -0.325000
     31 N27        -15.7830    10.1220    23.5520 nv         1 Q0U      -1.080900
     32 N36         -7.2540    11.6520    24.3170 na         1 Q0U       0.024300
     33 N43        -12.2900    12.3820    24.2200 n          1 Q0U      -0.427800
     34 N45        -13.8400    13.9350    24.9410 ns         1 Q0U      -0.516900
     35 O04         -3.0680    12.4910    25.1730 oh         1 Q0U      -0.709000
     36 O07         -4.7720     8.0290    25.0790 os         1 Q0U      -0.579400
     37 O09         -5.2850     5.6190    24.6410 o          1 Q0U      -0.818500
     38 O10         -7.1090     7.2880    25.3340 os         1 Q0U      -0.728800
     39 O12         -8.3490     5.1570    26.1130 o          1 Q0U      -0.849000
     40 O13         -8.6600     7.4530    27.2330 os         1 Q0U      -0.591400
     41 O16        -10.8750     9.0420    28.0130 os         1 Q0U      -0.441000
     42 O29        -13.6810     7.9610    29.8600 oh         1 Q0U      -0.706000
     43 O31        -11.2560     8.7030    30.9790 oh         1 Q0U      -0.711000
     44 O32         -9.5720     7.0870    24.8670 o          1 Q0U      -0.849000
     45 O33         -5.3740     6.5440    27.0900 o          1 Q0U      -0.818500
     46 O34         -5.1410    10.6500    24.0580 os         1 Q0U      -0.407000
     47 O51        -12.2700    13.1210    26.3630 o          1 Q0U      -0.609100
     48 P08         -5.5840     6.7040    25.6200 p5         1 Q0U       1.451800
     49 P11         -8.5150     6.6140    25.8230 p5         1 Q0U       1.461800
     50 H1          -9.0970     6.3380    28.9150 h1         1 Q0U       0.026700
     51 H2         -10.3930     6.3940    27.7250 h1         1 Q0U       0.026700
     52 H3          -9.3820     8.7390    29.3950 h1         1 Q0U       0.100700
     53 H5         -12.5680     9.9310    28.8110 h2         1 Q0U       0.107700
     54 H6         -11.9180     7.5730    25.8690 h5         1 Q0U       0.127800
     55 H7          -5.9560    11.6640    26.5200 h1         1 Q0U       0.073700
     56 H8          -3.6010    11.4040    26.8620 h1         1 Q0U       0.069700
     57 H9          -3.2460    10.0200    24.5120 h1         1 Q0U       0.099700
     58 H10         -3.8250     8.9690    26.6650 h1         1 Q0U       0.025200
     59 H11         -5.5190     9.4020    26.4570 h1         1 Q0U       0.025200
     60 H12        -16.0950    12.1900    27.3670 h5         1 Q0U       0.034100
     61 H13        -12.5550     6.9060    28.4790 h1         1 Q0U       0.066700
     62 H14        -11.0210     6.7380    30.3430 h1         1 Q0U       0.062700
     63 H15         -5.5470    12.6210    23.6590 h2         1 Q0U       0.102700
     64 H16         -7.4980    13.6870    24.0340 h4         1 Q0U       0.206500
     65 H17         -9.9650    13.5730    24.1140 ha         1 Q0U       0.199000
     66 H18         -7.1550     9.5910    24.5460 h4         1 Q0U       0.206500
     67 H19         -9.5880     9.3140    24.6380 ha         1 Q0U       0.199000
     68 H20        -11.7720    10.3990    23.9270 h1         1 Q0U       0.107200
     69 H21        -11.6550    10.9390    25.5800 h1         1 Q0U       0.107200
     70 H22        -14.1930    14.4410    26.9320 h1         1 Q0U       0.094700
     71 H23        -15.5560    14.6690    25.8460 h1         1 Q0U       0.094700
     72 H24        -12.8090    13.5340    22.5380 h1         1 Q0U       0.042033
     73 H25        -12.0580    11.9920    22.1950 h1         1 Q0U       0.042033
     74 H26        -13.7450    12.0310    22.7060 h1         1 Q0U       0.042033
     75 H27        -16.5680    10.6390    23.1950 hn         1 Q0U       0.502000
     76 H28        -15.3990     9.3880    22.9830 hn         1 Q0U       0.502000
     77 H29        -14.3620    13.7720    24.0960 hn         1 Q0U       0.325500
     78 H30         -5.4810    13.7830    26.9070 ho         1 Q0U       0.524000
     79 H31         -2.1880    12.1020    25.1480 ho         1 Q0U       0.513000
     80 H33        -14.0120     7.0970    30.1270 ho         1 Q0U       0.509000
     81 H34        -12.1030     8.6220    31.4340 ho         1 Q0U       0.510000
     82 C44        -12.7710    13.1460    25.2470 c          1 Q0U       0.655100
     83 C52        -12.7640    12.4920    22.8550 c3         1 Q0U       0.085300
     84 O01         -5.4390    13.5840    25.9670 oh         1 Q0U      -0.703000
@<TRIPOS>BOND
     1     1     2 1   
     2     1    40 1   
     3     1    50 1   
     4     1    51 1   
     5     2    14 1   
     6     2    41 1   
     7     2    52 1   
     8     3    13 1   
     9     3    27 1   
    10     3    41 1   
    11     3    53 1   
    12     4    27 1   
    13     4    28 2   
    14     4    54 1   
    15     5     6 1   
    16     5    15 1   
    17     5    55 1   
    18     5    84 1   
    19     6     7 1   
    20     6    35 1   
    21     6    56 1   
    22     7     8 1   
    23     7    46 1   
    24     7    57 1   
    25     8    36 1   
    26     8    58 1   
    27     8    59 1   
    28     9    10 ar  
    29     9    12 ar  
    30     9    28 1   
    31    10    27 1   
    32    10    29 ar  
    33    11    29 ar  
    34    11    30 ar  
    35    11    60 1   
    36    12    30 ar  
    37    12    31 1   
    38    13    14 1   
    39    13    42 1   
    40    13    61 1   
    41    14    43 1   
    42    14    62 1   
    43    15    32 1   
    44    15    46 1   
    45    15    63 1   
    46    16    17 ar  
    47    16    32 2   
    48    16    64 1   
    49    17    20 ar  
    50    17    65 1   
    51    18    19 ar  
    52    18    32 1   
    53    18    66 1   
    54    19    20 ar  
    55    19    67 1   
    56    20    21 1   
    57    21    33 1   
    58    21    68 1   
    59    21    69 1   
    60    22    23 1   
    61    22    34 1   
    62    22    70 1   
    63    22    71 1   
    64    23    24 1   
    65    23    25 1   
    66    23    26 1   
    67    31    75 1   
    68    31    76 1   
    69    33    82 1   
    70    33    83 1   
    71    34    77 1   
    72    34    82 1   
    73    35    79 1   
    74    36    48 1   
    75    37    48 1   
    76    38    48 1   
    77    38    49 1   
    78    39    49 1   
    79    40    49 1   
    80    42    80 1   
    81    43    81 1   
    82    44    49 1   
    83    45    48 1   
    84    47    82 2   
    85    72    83 1   
    86    73    83 1   
    87    74    83 1   
    88    78    84 1   
@<TRIPOS>SUBSTRUCTURE
     1 Q0U         1 TEMP              0 ****  ****    0 ROOT
