@<TRIPOS>MOLECULE
Q0U
   84    88     1     0     0
SMALL
No Charge or Current Charge


@<TRIPOS>ATOM
      1 C14         -9.5740     6.9090    27.8010 c3         1 Q0U       0.225600
      2 C15        -10.0640     8.1100    28.6670 c5         1 Q0U       0.150300
      3 C17        -12.3110     8.7810    28.3150 c5         1 Q0U       0.315300
      4 C19        -13.2820     7.8120    26.1710 cc         1 Q0U       0.444700
      5 C02         -4.9480    12.3170    26.5450 c5         1 Q0U       0.129300
      6 C03         -3.6810    11.4680    26.2190 c5         1 Q0U       0.103300
      7 C05         -4.2140    10.6050    25.0350 c5         1 Q0U       0.113300
      8 C06         -5.1320     9.4170    25.4630 c3         1 Q0U       0.226600
      9 C21        -14.7310     9.3370    25.7000 ca         1 Q0U      -0.101600
     10 C22        -14.1070     9.7730    26.8410 ca         1 Q0U       0.119500
     11 C24        -15.4150    11.6500    26.8390 ca         1 Q0U       0.152900
     12 C26        -15.7410    10.1490    25.1440 ca         1 Q0U       0.431900
     13 C28        -12.3100     7.4880    29.1970 c5         1 Q0U       0.076300
     14 C30        -10.9280     7.6560    29.8910 c5         1 Q0U       0.106300
     15 C35         -5.6350    12.4880    25.1350 c5         1 Q0U       0.280300
     16 C37         -7.9410    12.9620    25.9960 ca         1 Q0U      -0.005800
     17 C38         -9.2960    12.6220    26.1660 ca         1 Q0U      -0.122500
     18 C39         -7.7220    11.3330    24.2720 ca         1 Q0U      -0.056500
     19 C40         -9.0730    10.9740    24.4210 ca         1 Q0U      -0.122500
     20 C41         -9.8670    11.6010    25.3910 ca         1 Q0U       0.007700
     21 C42        -11.3170    11.1870    25.5860 c3         1 Q0U       0.127300
     22 C46        -14.4260    14.9610    24.4260 c3         1 Q0U       0.046000
     23 C47        -13.6410    16.1830    23.8890 c3         1 Q0U       0.276000
     24 F48        -12.4540    16.3280    24.5220 f          1 Q0U      -0.118667
     25 F49        -14.3490    17.3200    24.0730 f          1 Q0U      -0.118667
     26 F50        -13.3950    16.0570    22.5650 f          1 Q0U      -0.118667
     27 N18        -13.1850     8.8120    27.1450 na         1 Q0U      -0.290300
     28 N20        -14.2360     8.1040    25.2630 nd         1 Q0U      -0.575100
     29 N23        -14.4330    10.9360    27.4400 nb         1 Q0U      -0.187000
     30 N25        -16.0910    11.3120    25.7130 nb         1 Q0U      -0.325000
     31 N27        -16.4240     9.8070    24.0200 nv         1 Q0U      -1.080900
     32 N36         -7.0950    12.2660    25.1160 na         1 Q0U       0.024300
     33 N43        -12.2670    11.8940    24.6970 n          1 Q0U      -0.427800
     34 N45        -13.7400    13.6690    24.2240 ns         1 Q0U      -0.516900
     35 O04         -2.5850    12.3310    25.8420 oh         1 Q0U      -0.709000
     36 O07         -5.5050     8.6870    24.2890 os         1 Q0U      -0.579400
     37 O09         -6.3860     6.6180    23.1450 o          1 Q0U      -0.818500
     38 O10         -7.7640     8.0870    24.7030 os         1 Q0U      -0.728800
     39 O12         -8.8210     5.7220    24.8730 o          1 Q0U      -0.849000
     40 O13         -8.6020     7.3560    26.8470 os         1 Q0U      -0.591400
     41 O16        -10.9410     8.9850    27.8980 os         1 Q0U      -0.441000
     42 O29        -13.3830     7.4300    30.1590 oh         1 Q0U      -0.706000
     43 O31        -11.0030     8.6430    30.9310 oh         1 Q0U      -0.711000
     44 O32        -10.2240     7.7310    24.9100 o          1 Q0U      -0.849000
     45 O33         -5.8790     6.5390    25.5850 o          1 Q0U      -0.818500
     46 O34         -4.9350    11.5800    24.2420 os         1 Q0U      -0.407000
     47 O51        -12.5430    13.6570    26.1520 o          1 Q0U      -0.609100
     48 P08         -6.3940     7.3530    24.4450 p5         1 Q0U       1.451800
     49 P11         -8.8990     7.1560    25.2770 p5         1 Q0U       1.461800
     50 H1          -9.1150     6.1650    28.4650 h1         1 Q0U       0.026700
     51 H2         -10.4320     6.4270    27.3140 h1         1 Q0U       0.026700
     52 H3          -9.1810     8.6750    28.9950 h1         1 Q0U       0.100700
     53 H5         -12.6130     9.6310    28.9410 h2         1 Q0U       0.107700
     54 H6         -12.6510     6.9290    26.1770 h5         1 Q0U       0.127800
     55 H7          -5.6120    11.7660    27.2270 h1         1 Q0U       0.073700
     56 H8          -3.3940    10.8370    27.0740 h1         1 Q0U       0.069700
     57 H9          -3.3910    10.1910    24.4360 h1         1 Q0U       0.099700
     58 H10         -4.5680     8.7760    26.1520 h1         1 Q0U       0.025200
     59 H11         -6.0190     9.7850    25.9930 h1         1 Q0U       0.025200
     60 H12        -15.6880    12.5940    27.3080 h5         1 Q0U       0.034100
     61 H13        -12.3200     6.5910    28.5610 h1         1 Q0U       0.066700
     62 H14        -10.5700     6.7010    30.3020 h1         1 Q0U       0.062700
     63 H15         -5.4950    13.5130    24.7710 h2         1 Q0U       0.102700
     64 H16         -7.4940    13.7630    26.5880 h4         1 Q0U       0.206500
     65 H17         -9.9000    13.1570    26.8980 ha         1 Q0U       0.199000
     66 H18         -7.1100    10.8360    23.5170 h4         1 Q0U       0.206500
     67 H19         -9.4960    10.1950    23.7880 ha         1 Q0U       0.199000
     68 H20        -11.3990    10.1060    25.4200 h1         1 Q0U       0.107200
     69 H21        -11.5990    11.3560    26.6340 h1         1 Q0U       0.107200
     70 H22        -14.6180    15.1060    25.4980 h1         1 Q0U       0.094700
     71 H23        -15.4010    14.9220    23.9240 h1         1 Q0U       0.094700
     72 H24        -12.3130    11.9040    22.5770 h1         1 Q0U       0.042033
     73 H25        -12.0710    10.2950    23.3020 h1         1 Q0U       0.042033
     74 H26        -13.6820    11.0520    23.3570 h1         1 Q0U       0.042033
     75 H27        -17.3150    10.2630    23.8470 hn         1 Q0U       0.502000
     76 H28        -16.3330     8.8460    23.7020 hn         1 Q0U       0.502000
     77 H29        -13.9250    13.1480    23.3770 hn         1 Q0U       0.325500
     78 H30         -3.5830    13.6110    26.8460 ho         1 Q0U       0.524000
     79 H31         -1.8240    11.7580    25.5840 ho         1 Q0U       0.513000
     80 H33        -13.5990     6.4790    30.3150 ho         1 Q0U       0.509000
     81 H34        -11.9280     8.5680    31.2730 ho         1 Q0U       0.510000
     82 C44        -12.8320    13.1180    25.0960 c          1 Q0U       0.655100
     83 C52        -12.6040    11.2480    23.4070 c3         1 Q0U       0.085300
     84 O01         -4.5310    13.5500    27.1400 oh         1 Q0U      -0.703000
@<TRIPOS>BOND
     1     1     2 1   
     2     1    40 1   
     3     1    50 1   
     4     1    51 1   
     5     2    14 1   
     6     2    41 1   
     7     2    52 1   
     8     3    13 1   
     9     3    27 1   
    10     3    41 1   
    11     3    53 1   
    12     4    27 1   
    13     4    28 2   
    14     4    54 1   
    15     5     6 1   
    16     5    15 1   
    17     5    55 1   
    18     5    84 1   
    19     6     7 1   
    20     6    35 1   
    21     6    56 1   
    22     7     8 1   
    23     7    46 1   
    24     7    57 1   
    25     8    36 1   
    26     8    58 1   
    27     8    59 1   
    28     9    10 ar  
    29     9    12 ar  
    30     9    28 1   
    31    10    27 1   
    32    10    29 ar  
    33    11    29 ar  
    34    11    30 ar  
    35    11    60 1   
    36    12    30 ar  
    37    12    31 1   
    38    13    14 1   
    39    13    42 1   
    40    13    61 1   
    41    14    43 1   
    42    14    62 1   
    43    15    32 1   
    44    15    46 1   
    45    15    63 1   
    46    16    17 ar  
    47    16    32 2   
    48    16    64 1   
    49    17    20 ar  
    50    17    65 1   
    51    18    19 ar  
    52    18    32 1   
    53    18    66 1   
    54    19    20 ar  
    55    19    67 1   
    56    20    21 1   
    57    21    33 1   
    58    21    68 1   
    59    21    69 1   
    60    22    23 1   
    61    22    34 1   
    62    22    70 1   
    63    22    71 1   
    64    23    24 1   
    65    23    25 1   
    66    23    26 1   
    67    31    75 1   
    68    31    76 1   
    69    33    82 1   
    70    33    83 1   
    71    34    77 1   
    72    34    82 1   
    73    35    79 1   
    74    36    48 1   
    75    37    48 1   
    76    38    48 1   
    77    38    49 1   
    78    39    49 1   
    79    40    49 1   
    80    42    80 1   
    81    43    81 1   
    82    44    49 1   
    83    45    48 1   
    84    47    82 2   
    85    72    83 1   
    86    73    83 1   
    87    74    83 1   
    88    78    84 1   
@<TRIPOS>SUBSTRUCTURE
     1 Q0U         1 TEMP              0 ****  ****    0 ROOT
