@<TRIPOS>MOLECULE
Q0W
   26    27     1     0     0
SMALL
No Charge or Current Charge


@<TRIPOS>ATOM
      1 C10         19.3090    14.1650    31.0390 ca         1 Q0W       0.429900
      2 C15         20.8000    16.4980    35.1750 cc         1 Q0W       0.301900
      3 C01         23.1790    13.6140    37.4990 c3         1 Q0W      -0.111100
      4 N03         21.2810    14.8680    36.4300 na         1 Q0W       0.135800
      5 C04         20.7870    14.2810    35.2600 cd         1 Q0W      -0.115000
      6 C05         20.5260    15.3380    34.4340 cc         1 Q0W      -0.315500
      7 C06         19.8770    15.2240    33.1230 ca         1 Q0W       0.321500
      8 C07         20.0690    14.1480    32.2210 ca         1 Q0W      -0.237000
      9 C08         21.0380    13.1190    32.4490 cg         1 Q0W       0.354000
     10 N09         21.8220    12.2710    32.6230 n1         1 Q0W      -0.492000
     11 N11         18.4330    15.1360    30.7620 nb         1 Q0W      -0.281000
     12 C12         18.3160    16.1110    31.6800 ca         1 Q0W       0.196900
     13 N13         18.9880    16.2000    32.8420 nb         1 Q0W      -0.243000
     14 N14         19.3960    13.2110    30.0720 nv         1 Q0W      -1.068900
     15 N16         21.2800    16.2570    36.3780 nd         1 Q0W      -0.533800
     16 H1          20.6570    17.5250    34.8640 h4         1 Q0W       0.057100
     17 H2          23.4770    13.0910    38.4150 hc         1 Q0W       0.051700
     18 H3          23.2530    12.9110    36.6600 hc         1 Q0W       0.051700
     19 H4          23.8840    14.4360    37.3260 hc         1 Q0W       0.051700
     20 H5          21.6860    14.8330    38.4920 h1         1 Q0W       0.063700
     21 H6          21.0560    13.3180    37.8220 h1         1 Q0W       0.063700
     22 H7          20.6560    13.2100    35.1490 h4         1 Q0W       0.166000
     23 H8          17.6030    16.9060    31.4640 h5         1 Q0W       0.048100
     24 H9          18.6800    13.1980    29.3470 hn         1 Q0W       0.507500
     25 H10         19.8420    12.3210    30.2830 hn         1 Q0W       0.507500
     26 C02         21.7410    14.1530    37.6320 c3         1 Q0W       0.086600
@<TRIPOS>BOND
     1     1     8 ar  
     2     1    11 ar  
     3     1    14 1   
     4     2     6 1   
     5     2    15 2   
     6     2    16 1   
     7     3    17 1   
     8     3    18 1   
     9     3    19 1   
    10     3    26 1   
    11     4     5 1   
    12     4    15 1   
    13     4    26 1   
    14     5     6 2   
    15     5    22 1   
    16     6     7 1   
    17     7     8 ar  
    18     7    13 ar  
    19     8     9 1   
    20     9    10 3   
    21    11    12 ar  
    22    12    13 ar  
    23    12    23 1   
    24    14    24 1   
    25    14    25 1   
    26    20    26 1   
    27    21    26 1   
@<TRIPOS>SUBSTRUCTURE
     1 Q0W         1 TEMP              0 ****  ****    0 ROOT
