@<TRIPOS>MOLECULE
Q0W
   26    27     1     0     0
SMALL
abcg2


@<TRIPOS>ATOM
      1 C10         19.2200    14.2180    30.9770 ca         1 Q0W       0.429900
      2 C15         20.5340    16.2200    35.3080 cc         1 Q0W       0.301900
      3 C01         23.3740    14.2270    37.6310 c3         1 Q0W      -0.111100
      4 N03         21.2610    14.5810    36.4140 na         1 Q0W       0.135800
      5 C04         20.8900    14.0480    35.2490 cd         1 Q0W      -0.115000
      6 C05         20.3960    15.0880    34.4710 cc         1 Q0W      -0.315500
      7 C06         19.8470    15.1180    33.1310 ca         1 Q0W       0.321500
      8 C07         19.7990    14.0230    32.2600 ca         1 Q0W      -0.237000
      9 C08         20.3060    12.7460    32.5880 cg         1 Q0W       0.354000
     10 N09         20.7090    11.6860    32.8080 n1         1 Q0W      -0.492000
     11 N11         18.7550    15.4220    30.6260 nb         1 Q0W      -0.281000
     12 C12         18.8630    16.3810    31.5220 ca         1 Q0W       0.196900
     13 N13         19.3710    16.3050    32.7380 nb         1 Q0W      -0.243000
     14 N14         19.1180    13.2380    30.0850 nv         1 Q0W      -1.068900
     15 N16         21.0590    15.9000    36.4670 nd         1 Q0W      -0.533800
     16 H1          20.2630    17.2390    35.0870 h4         1 Q0W       0.057100
     17 H2          23.8080    13.6910    38.4740 hc         1 Q0W       0.051700
     18 H3          23.9060    13.9280    36.7280 hc         1 Q0W       0.051700
     19 H4          23.5330    15.2920    37.7910 hc         1 Q0W       0.051700
     20 H5          21.3680    14.1840    38.4380 h1         1 Q0W       0.063700
     21 H6          21.7440    12.8320    37.3800 h1         1 Q0W       0.063700
     22 H7          20.9950    12.9920    35.0710 h4         1 Q0W       0.166000
     23 H8          18.4870    17.3540    31.2220 h5         1 Q0W       0.048100
     24 H9          18.7040    13.4310    29.1880 hn         1 Q0W       0.507500
     25 H10         19.4310    12.2990    30.2600 hn         1 Q0W       0.507500
     26 C02         21.8960    13.9000    37.5280 c3         1 Q0W       0.086600
@<TRIPOS>BOND
     1     1     8 ar  
     2     1    11 ar  
     3     1    14 1   
     4     2     6 1   
     5     2    15 2   
     6     2    16 1   
     7     3    17 1   
     8     3    18 1   
     9     3    19 1   
    10     3    26 1   
    11     4     5 1   
    12     4    15 1   
    13     4    26 1   
    14     5     6 2   
    15     5    22 1   
    16     6     7 1   
    17     7     8 ar  
    18     7    13 ar  
    19     8     9 1   
    20     9    10 3   
    21    11    12 ar  
    22    12    13 ar  
    23    12    23 1   
    24    14    24 1   
    25    14    25 1   
    26    20    26 1   
    27    21    26 1   
@<TRIPOS>SUBSTRUCTURE
     1 Q0W         1 TEMP              0 ****  ****    0 ROOT
