@<TRIPOS>MOLECULE
Q0Y
   32    33     1     0     0
SMALL
abcg2


@<TRIPOS>ATOM
      1 C05          1.3910    -0.4080     0.0940 ca         1 Q0Y       0.056000
      2 C13          2.2080    -0.3520    -1.0220 ca         1 Q0Y      -0.086900
      3 C16         -2.5010     3.0170    -0.5240 ca         1 Q0Y      -0.057000
      4 C15          1.9970    -1.2100    -2.0900 ca         1 Q0Y       0.005000
      5 C21         -1.2500    -3.8700    -1.9240 c3         1 Q0Y       0.155900
      6 C11          0.9620    -2.1310    -2.0520 ca         1 Q0Y      -0.225000
      7 C02          0.3610    -1.3330     0.1290 ca         1 Q0Y      -0.342500
      8 C04         -2.2990     0.4370     0.4970 ca         1 Q0Y       0.209000
      9 C12         -2.4680     1.9320    -1.3830 ca         1 Q0Y      -0.190000
     10 C08         -2.3520     1.5240     1.3590 ca         1 Q0Y      -0.036000
     11 C09          0.1250    -2.2070    -0.9420 ca         1 Q0Y       0.251100
     12 C10         -2.3590     0.6370    -0.8870 ca         1 Q0Y       0.119100
     13 C14         -2.4420     2.8050     0.8440 ca         1 Q0Y       0.089000
     14 N03         -2.1920    -0.8710     1.0330 nu         1 Q0Y      -0.858100
     15 O06         -0.8610    -2.7400     2.0120 o          1 Q0Y      -0.527500
     16 O07         -0.2060    -0.3680     2.4760 o          1 Q0Y      -0.527500
     17 O19         -2.3250    -0.4480    -1.6740 oh         1 Q0Y      -0.541100
     18 O20         -0.8990    -3.0470    -0.8230 os         1 Q0Y      -0.339100
     19 S01         -0.6940    -1.3760     1.5530 sy         1 Q0Y       1.159600
     20 BR1          3.6130     0.9030    -1.0880 br         1 Q0Y      -0.084100
     21 CL1         -2.4960     4.1570     1.9280 cl         1 Q0Y      -0.186000
     22 H1           1.5480     0.2600     0.9300 ha         1 Q0Y       0.161000
     23 H3           2.6310    -1.1740    -2.9660 ha         1 Q0Y       0.129000
     24 H4          -1.4880    -3.2770    -2.8090 h1         1 Q0Y       0.050033
     25 H5          -0.4540    -4.5780    -2.1640 h1         1 Q0Y       0.050033
     26 H6          -2.1340    -4.4220    -1.6180 h1         1 Q0Y       0.050033
     27 H7           0.8210    -2.7840    -2.9020 ha         1 Q0Y       0.123000
     28 H8          -2.5180     2.0970    -2.4530 ha         1 Q0Y       0.121000
     29 H9          -2.3330     1.3580     2.4260 ha         1 Q0Y       0.161000
     30 H10         -2.6750    -1.5970     0.5120 hn         1 Q0Y       0.503000
     31 H11         -2.3670    -0.1980    -2.6030 ho         1 Q0Y       0.474000
     32 H2          -2.5780     4.0190    -0.9250 ha         1 Q0Y       0.133000
@<TRIPOS>BOND
     1     1     2 ar  
     2     1     7 ar  
     3     1    22 1   
     4     2     4 ar  
     5     2    20 1   
     6     3     9 ar  
     7     3    13 ar  
     8     3    32 1   
     9     4     6 ar  
    10     4    23 1   
    11     5    18 1   
    12     5    24 1   
    13     5    25 1   
    14     5    26 1   
    15     6    11 ar  
    16     6    27 1   
    17     7    11 ar  
    18     7    19 1   
    19     8    10 ar  
    20     8    12 ar  
    21     8    14 1   
    22     9    12 ar  
    23     9    28 1   
    24    10    13 ar  
    25    10    29 1   
    26    11    18 1   
    27    12    17 1   
    28    13    21 1   
    29    14    19 1   
    30    14    30 1   
    31    15    19 2   
    32    16    19 2   
    33    17    31 1   
@<TRIPOS>SUBSTRUCTURE
     1 Q0Y         1 TEMP              0 ****  ****    0 ROOT
