@<TRIPOS>MOLECULE
Q0Y
   32    33     1     0     0
SMALL
No Charge or Current Charge


@<TRIPOS>ATOM
      1 C05          1.5930    -0.6100     0.6470 ca         1 Q0Y       0.056000
      2 C13          2.5480    -0.4300    -0.3660 ca         1 Q0Y      -0.086900
      3 C16         -2.6250     2.7560    -0.9870 ca         1 Q0Y      -0.057000
      4 C15          2.3680    -1.0260    -1.6220 ca         1 Q0Y       0.005000
      5 C21         -1.1940    -3.3190    -2.3610 c3         1 Q0Y       0.155900
      6 C11          1.2240    -1.8030    -1.8690 ca         1 Q0Y      -0.225000
      7 C02          0.4480    -1.3950     0.4010 ca         1 Q0Y      -0.342500
      8 C04         -2.3110     0.3230     0.4160 ca         1 Q0Y       0.209000
      9 C12         -3.3330     1.6140    -1.4000 ca         1 Q0Y      -0.190000
     10 C08         -1.6120     1.4780     0.8230 ca         1 Q0Y      -0.036000
     11 C09          0.2540    -1.9910    -0.8590 ca         1 Q0Y       0.251100
     12 C10         -3.1800     0.4020    -0.7050 ca         1 Q0Y       0.119100
     13 C14         -1.7680     2.6850     0.1230 ca         1 Q0Y       0.089000
     14 N03         -2.1690    -0.9020     1.0780 nu         1 Q0Y      -0.858100
     15 O06         -1.1390    -2.9960     1.8360 o          1 Q0Y      -0.527500
     16 O07         -0.4220    -0.7570     2.8540 o          1 Q0Y      -0.527500
     17 O19         -3.8720    -0.7050    -1.1300 oh         1 Q0Y      -0.541100
     18 O20         -0.8910    -2.7300    -1.0850 os         1 Q0Y      -0.339100
     19 S01         -0.7690    -1.5860     1.6970 sy         1 Q0Y       1.159600
     20 Br1          4.1010     0.6370    -0.0320 br         1 Q0Y      -0.084100
     21 Cl1         -0.8840     4.1160     0.6400 cl         1 Q0Y      -0.186000
     22 H1           1.7520    -0.1360     1.6150 ha         1 Q0Y       0.161000
     23 H3           3.1100    -0.8840    -2.4050 ha         1 Q0Y       0.129000
     24 H4          -1.2670    -2.5490    -3.1390 h1         1 Q0Y       0.050033
     25 H5          -0.4220    -4.0430    -2.6510 h1         1 Q0Y       0.050033
     26 H6          -2.1540    -3.8480    -2.3170 h1         1 Q0Y       0.050033
     27 H7           1.1080    -2.2480    -2.8520 ha         1 Q0Y       0.123000
     28 H8          -3.9950     1.6790    -2.2610 ha         1 Q0Y       0.121000
     29 H9          -0.9520     1.4520     1.6830 ha         1 Q0Y       0.161000
     30 H10         -2.6120    -1.6730     0.5920 hn         1 Q0Y       0.503000
     31 H11         -4.4300    -0.4500    -1.8960 ho         1 Q0Y       0.474000
     32 H2          -2.7400     3.6950    -1.5240 ha         1 Q0Y       0.133000
@<TRIPOS>BOND
     1     1     2 ar  
     2     1     7 ar  
     3     1    22 1   
     4     2     4 ar  
     5     2    20 1   
     6     3     9 ar  
     7     3    13 ar  
     8     3    32 1   
     9     4     6 ar  
    10     4    23 1   
    11     5    18 1   
    12     5    24 1   
    13     5    25 1   
    14     5    26 1   
    15     6    11 ar  
    16     6    27 1   
    17     7    11 ar  
    18     7    19 1   
    19     8    10 ar  
    20     8    12 ar  
    21     8    14 1   
    22     9    12 ar  
    23     9    28 1   
    24    10    13 ar  
    25    10    29 1   
    26    11    18 1   
    27    12    17 1   
    28    13    21 1   
    29    14    19 1   
    30    14    30 1   
    31    15    19 2   
    32    16    19 2   
    33    17    31 1   
@<TRIPOS>SUBSTRUCTURE
     1 Q0Y         1 TEMP              0 ****  ****    0 ROOT
