@<TRIPOS>MOLECULE
Q0Z
   32    34     1     0     0
SMALL
No Charge or Current Charge


@<TRIPOS>ATOM
      1 C10         20.0250    14.6100    35.0850 cc         1 Q0Z      -0.120000
      2 C13         22.3160    14.3530    37.6740 ca         1 Q0Z      -0.082300
      3 C15         24.3590    14.4510    39.0040 ca         1 Q0Z       0.170000
      4 C17         24.3890    13.3630    36.8330 ca         1 Q0Z      -0.084000
      5 C21         20.2080    16.8070    34.7870 cd         1 Q0Z       0.295900
      6 C02         18.6070    14.4300    30.7140 ca         1 Q0Z       0.406900
      7 N03         18.5240    15.6110    30.0930 nb         1 Q0Z      -0.275000
      8 C04         18.8740    16.6860    30.8200 ca         1 Q0Z       0.177900
      9 N05         19.2940    16.6850    32.0990 nb         1 Q0Z      -0.232000
     10 C06         19.3800    15.4960    32.7380 ca         1 Q0Z       0.282500
     11 C07         19.0310    14.2960    32.0530 ca         1 Q0Z      -0.082000
     12 Cl1         19.1020    12.6760    32.7750 cl         1 Q0Z      -0.203000
     13 C09         19.8480    15.5960    34.1440 cd         1 Q0Z      -0.293500
     14 N11         20.4800    15.2840    36.2130 na         1 Q0Z       0.127800
     15 C12         20.8290    14.6710    37.5090 c3         1 Q0Z       0.135900
     16 C14         22.9950    14.7450    38.8460 ca         1 Q0Z      -0.124000
     17 C16         25.0590    13.7620    38.0020 ca         1 Q0Z      -0.140000
     18 C18         23.0230    13.6560    36.6710 ca         1 Q0Z      -0.109000
     19 F19         25.0020    14.8330    40.1290 f          1 Q0Z      -0.177000
     20 N20         20.5920    16.6450    36.0370 nc         1 Q0Z      -0.524800
     21 H1          19.8830    13.5390    35.0800 h4         1 Q0Z       0.161000
     22 H2          24.9260    12.8260    36.0540 ha         1 Q0Z       0.120000
     23 H3          20.2010    17.8090    34.3740 h4         1 Q0Z       0.057100
     24 H4          17.7320    13.5390    29.0820 hn         1 Q0Z       0.505000
     25 H5          18.0820    12.4680    30.4010 hn         1 Q0Z       0.505000
     26 H6          18.8120    17.6530    30.3260 h5         1 Q0Z       0.048100
     27 H7          20.5030    15.3490    38.3070 h1         1 Q0Z       0.069700
     28 H8          20.2540    13.7430    37.6170 h1         1 Q0Z       0.069700
     29 H9          22.4720    15.2790    39.6350 ha         1 Q0Z       0.135000
     30 H10         26.1150    13.5380    38.1330 ha         1 Q0Z       0.134000
     31 H11         22.5170    13.3360    35.7630 ha         1 Q0Z       0.119000
     32 N01         18.2450    13.3630    29.9440 nv         1 Q0Z      -1.075900
@<TRIPOS>BOND
     1     1    13 2   
     2     1    14 1   
     3     1    21 1   
     4     2    15 1   
     5     2    16 ar  
     6     2    18 ar  
     7     3    16 ar  
     8     3    17 ar  
     9     3    19 1   
    10     4    17 ar  
    11     4    18 ar  
    12     4    22 1   
    13     5    13 1   
    14     5    20 2   
    15     5    23 1   
    16     6     7 ar  
    17     6    11 ar  
    18     6    32 1   
    19     7     8 ar  
    20     8     9 ar  
    21     8    26 1   
    22     9    10 ar  
    23    10    11 ar  
    24    10    13 1   
    25    11    12 1   
    26    14    15 1   
    27    14    20 1   
    28    15    27 1   
    29    15    28 1   
    30    16    29 1   
    31    17    30 1   
    32    18    31 1   
    33    24    32 1   
    34    25    32 1   
@<TRIPOS>SUBSTRUCTURE
     1 Q0Z         1 TEMP              0 ****  ****    0 ROOT
