@<TRIPOS>MOLECULE
Q0Z
   32    34     1     0     0
SMALL
abcg2


@<TRIPOS>ATOM
      1 C10         19.9530    14.4970    35.0930 cc         1 Q0Z      -0.120000
      2 C13         22.3060    14.2710    37.6600 ca         1 Q0Z      -0.082300
      3 C15         24.2880    14.7840    38.8910 ca         1 Q0Z       0.170000
      4 C17         24.4220    13.2970    37.0430 ca         1 Q0Z      -0.084000
      5 C21         20.5330    16.5830    34.7140 cd         1 Q0Z       0.295900
      6 C02         18.4700    14.5550    30.7170 ca         1 Q0Z       0.406900
      7 N03         18.4290    15.7820    30.1920 nb         1 Q0Z      -0.275000
      8 C04         18.8680    16.7700    30.9500 ca         1 Q0Z       0.177900
      9 N05         19.3350    16.6940    32.1760 nb         1 Q0Z      -0.232000
     10 C06         19.3860    15.4750    32.7460 ca         1 Q0Z       0.282500
     11 C07         18.9620    14.3700    32.0290 ca         1 Q0Z      -0.082000
     12 CL1         19.0220    12.7620    32.6570 cl         1 Q0Z      -0.203000
     13 C09         19.9180    15.4660    34.1020 cd         1 Q0Z      -0.293500
     14 N11         20.5400    15.0560    36.1580 na         1 Q0Z       0.127800
     15 C12         20.8260    14.4300    37.4330 c3         1 Q0Z       0.135900
     16 C14         22.9280    14.9510    38.6990 ca         1 Q0Z      -0.124000
     17 C16         25.0540    13.9700    38.0820 ca         1 Q0Z      -0.140000
     18 C18         23.0600    13.4410    36.8330 ca         1 Q0Z      -0.109000
     19 F19         24.8810    15.4380    39.9020 f          1 Q0Z      -0.177000
     20 N20         20.9060    16.3200    35.9440 nc         1 Q0Z      -0.524800
     21 H1          19.5950    13.4830    35.1360 h4         1 Q0Z       0.161000
     22 H2          25.0020    12.6510    36.3990 ha         1 Q0Z       0.120000
     23 H3          20.7070    17.5560    34.2820 h4         1 Q0Z       0.057100
     24 H4          17.6620    13.7400    29.0500 hn         1 Q0Z       0.505000
     25 H5          17.9800    12.6000    30.3010 hn         1 Q0Z       0.505000
     26 H6          18.8360    17.7600    30.5060 h5         1 Q0Z       0.048100
     27 H7          20.3750    15.0290    38.2240 h1         1 Q0Z       0.069700
     28 H8          20.3290    13.4590    37.4330 h1         1 Q0Z       0.069700
     29 H9          22.3610    15.6020    39.3540 ha         1 Q0Z       0.135000
     30 H10         26.1160    13.8620    38.2580 ha         1 Q0Z       0.134000
     31 H11         22.5820    12.9020    36.0230 ha         1 Q0Z       0.119000
     32 N01         18.0470    13.5410    29.9580 nv         1 Q0Z      -1.075900
@<TRIPOS>BOND
     1     1    13 2   
     2     1    14 1   
     3     1    21 1   
     4     2    15 1   
     5     2    16 ar  
     6     2    18 ar  
     7     3    16 ar  
     8     3    17 ar  
     9     3    19 1   
    10     4    17 ar  
    11     4    18 ar  
    12     4    22 1   
    13     5    13 1   
    14     5    20 2   
    15     5    23 1   
    16     6     7 ar  
    17     6    11 ar  
    18     6    32 1   
    19     7     8 ar  
    20     8     9 ar  
    21     8    26 1   
    22     9    10 ar  
    23    10    11 ar  
    24    10    13 1   
    25    11    12 1   
    26    14    15 1   
    27    14    20 1   
    28    15    27 1   
    29    15    28 1   
    30    16    29 1   
    31    17    30 1   
    32    18    31 1   
    33    24    32 1   
    34    25    32 1   
@<TRIPOS>SUBSTRUCTURE
     1 Q0Z         1 TEMP              0 ****  ****    0 ROOT
