@<TRIPOS>MOLECULE
Q10
   42    43     1     0     0
SMALL
abcg2


@<TRIPOS>ATOM
      1 N14         -8.2040     1.8150     0.2110 n8         1 Q10      -0.993200
      2 C13         -7.3450     0.6520     0.0460 c3         1 Q10       0.151800
      3 C12         -5.8800     1.0610     0.0900 c3         1 Q10      -0.085400
      4 C11         -4.9690    -0.1410    -0.0510 c3         1 Q10       0.165600
      5 O10         -3.6250     0.3140    -0.0150 os         1 Q10      -0.346100
      6 C25         -2.6300    -0.5920    -0.0430 ca         1 Q10       0.181100
      7 C24         -2.8270    -1.9720    -0.1280 ca         1 Q10      -0.236000
      8 C23         -1.7160    -2.8030    -0.1380 ca         1 Q10      -0.037000
      9 C22         -0.4220    -2.3080    -0.0710 ca         1 Q10      -0.234000
     10 C26         -1.3390    -0.0760     0.0200 ca         1 Q10      -0.190000
     11 C21         -0.2400    -0.9270     0.0050 ca         1 Q10       0.183100
     12 O09          0.9640    -0.3240     0.0690 os         1 Q10      -0.348100
     13 C08          2.1280    -1.1140     0.0410 c3         1 Q10       0.111300
     14 C06          3.3430    -0.2270     0.0450 ca         1 Q10       0.389300
     15 N01          4.4870    -0.9030     0.1470 nb         1 Q10      -0.762000
     16 C02          5.6290    -0.2250     0.1440 ca         1 Q10       0.603900
     17 N02          6.7840    -0.9480     0.2000 nv         1 Q10      -1.057900
     18 C03          5.6640     1.1780     0.0460 ca         1 Q10      -0.229000
     19 C04          4.4780     1.8710    -0.0590 ca         1 Q10      -0.002300
     20 C05          3.2770     1.1470    -0.0610 ca         1 Q10      -0.189000
     21 C07          4.4570     3.3630    -0.1860 c3         1 Q10      -0.054800
     22 H1          -9.1720     1.5280     0.1450 hn         1 Q10       0.394000
     23 H2          -8.0930     2.1810     1.1490 hn         1 Q10       0.394000
     24 H4          -7.5220    -0.1340     0.7950 h1         1 Q10       0.026700
     25 H5          -7.5640     0.2030    -0.9260 h1         1 Q10       0.026700
     26 H6          -5.6810     1.7790    -0.7090 hc         1 Q10       0.063200
     27 H7          -5.6690     1.5620     1.0400 hc         1 Q10       0.063200
     28 H8          -5.1510    -0.8500     0.7650 h1         1 Q10       0.033700
     29 H9          -5.1680    -0.6640    -0.9930 h1         1 Q10       0.033700
     30 H10         -3.8150    -2.4060    -0.1860 ha         1 Q10       0.117000
     31 H11         -1.8640    -3.8730    -0.2000 ha         1 Q10       0.109000
     32 H12          0.4100    -2.9970    -0.0790 ha         1 Q10       0.121000
     33 H13         -1.1920     0.9960     0.0830 ha         1 Q10       0.140000
     34 H14          2.1730    -1.7840     0.9080 h1         1 Q10       0.056700
     35 H15          2.1550    -1.7460    -0.8550 h1         1 Q10       0.056700
     36 H16          6.7040    -1.8950     0.5320 hn         1 Q10       0.470000
     37 H17          7.6180    -0.4730     0.5010 hn         1 Q10       0.470000
     38 H18          6.6130     1.7000     0.0530 ha         1 Q10       0.119000
     39 H19          2.3320     1.6650    -0.1440 ha         1 Q10       0.140000
     40 H20          4.1570     3.6560    -1.1940 hc         1 Q10       0.047700
     41 H21          3.7360     3.8060     0.5020 hc         1 Q10       0.047700
     42 H22          5.4340     3.8000     0.0130 hc         1 Q10       0.047700
@<TRIPOS>BOND
     1     1     2 1   
     2     1    22 1   
     3     1    23 1   
     4     2     3 1   
     5     2    24 1   
     6     2    25 1   
     7     3     4 1   
     8     3    26 1   
     9     3    27 1   
    10     4     5 1   
    11     4    28 1   
    12     4    29 1   
    13     5     6 1   
    14     6     7 ar  
    15     6    10 ar  
    16     7     8 ar  
    17     7    30 1   
    18     8     9 ar  
    19     8    31 1   
    20     9    11 ar  
    21     9    32 1   
    22    10    11 ar  
    23    10    33 1   
    24    11    12 1   
    25    12    13 1   
    26    13    14 1   
    27    13    34 1   
    28    13    35 1   
    29    14    15 ar  
    30    14    20 ar  
    31    15    16 ar  
    32    16    17 1   
    33    16    18 ar  
    34    17    36 1   
    35    17    37 1   
    36    18    19 ar  
    37    18    38 1   
    38    19    20 ar  
    39    19    21 1   
    40    20    39 1   
    41    21    40 1   
    42    21    41 1   
    43    21    42 1   
@<TRIPOS>SUBSTRUCTURE
     1 Q10         1 TEMP              0 ****  ****    0 ROOT
