@<TRIPOS>MOLECULE
Q10
   42    43     1     0     0
SMALL
No Charge or Current Charge


@<TRIPOS>ATOM
      1 N14         -8.2800     1.7730     0.9260 n8         1 Q10      -0.993200
      2 C13         -7.4540     0.6400     0.4710 c3         1 Q10       0.151800
      3 C12         -5.9510     0.9610     0.5710 c3         1 Q10      -0.085400
      4 C11         -5.0680    -0.2050     0.0910 c3         1 Q10       0.165600
      5 O10         -3.6950     0.2010     0.2280 os         1 Q10      -0.346100
      6 C25         -2.6470    -0.6250    -0.1190 ca         1 Q10       0.181100
      7 C24         -2.8420    -1.9250    -0.6330 ca         1 Q10      -0.236000
      8 C23         -1.7350    -2.7210    -0.9700 ca         1 Q10      -0.037000
      9 C22         -0.4330    -2.2250    -0.7960 ca         1 Q10      -0.234000
     10 C26         -1.3440    -0.1370     0.0510 ca         1 Q10      -0.190000
     11 C21         -0.2350    -0.9260    -0.2830 ca         1 Q10       0.183100
     12 O09          1.0200    -0.3860    -0.0920 os         1 Q10      -0.348100
     13 C08          2.2280    -1.1120    -0.4080 c3         1 Q10       0.111300
     14 C06          3.4530    -0.2450    -0.1090 ca         1 Q10       0.389300
     15 N01          4.3550    -0.7290     0.7840 nb         1 Q10      -0.762000
     16 C02          5.4170     0.0220     1.0310 ca         1 Q10       0.603900
     17 N02          6.2160    -0.5600     1.9250 nv         1 Q10      -1.057900
     18 C03          5.6770     1.2660     0.4530 ca         1 Q10      -0.229000
     19 C04          4.7550     1.7780    -0.4720 ca         1 Q10      -0.002300
     20 C05          3.6230     0.9960    -0.7550 ca         1 Q10      -0.189000
     21 C07          4.9750     3.1220    -1.1470 c3         1 Q10      -0.054800
     22 H1          -9.2710     1.5000     0.8910 hn         1 Q10       0.394000
     23 H2          -8.1120     1.9310     1.9270 hn         1 Q10       0.394000
     24 H4          -7.6880    -0.2380     1.0890 h1         1 Q10       0.026700
     25 H5          -7.7140     0.4120    -0.5720 h1         1 Q10       0.026700
     26 H6          -5.7280     1.8490    -0.0330 hc         1 Q10       0.063200
     27 H7          -5.6950     1.1990     1.6100 hc         1 Q10       0.063200
     28 H8          -5.2720    -1.0940     0.7020 h1         1 Q10       0.033700
     29 H9          -5.3010    -0.4350    -0.9570 h1         1 Q10       0.033700
     30 H10         -3.8380    -2.3330    -0.7770 ha         1 Q10       0.117000
     31 H11         -1.8870    -3.7240    -1.3660 ha         1 Q10       0.109000
     32 H12          0.4060    -2.8610    -1.0640 ha         1 Q10       0.121000
     33 H13         -1.1930     0.8630     0.4460 ha         1 Q10       0.140000
     34 H14          2.2820    -2.0380     0.1790 h1         1 Q10       0.056700
     35 H15          2.2460    -1.3820    -1.4710 h1         1 Q10       0.056700
     36 H16          5.7930    -1.3300     2.4290 hn         1 Q10       0.470000
     37 H17          6.8460     0.0350     2.4510 hn         1 Q10       0.470000
     38 H18          6.5750     1.8180     0.7130 ha         1 Q10       0.119000
     39 H19          2.8760     1.3410    -1.4650 ha         1 Q10       0.140000
     40 H20          5.4970     2.9980    -2.1030 hc         1 Q10       0.047700
     41 H21          4.0230     3.6270    -1.3470 hc         1 Q10       0.047700
     42 H22          5.5770     3.7900    -0.5200 hc         1 Q10       0.047700
@<TRIPOS>BOND
     1     1     2 1   
     2     1    22 1   
     3     1    23 1   
     4     2     3 1   
     5     2    24 1   
     6     2    25 1   
     7     3     4 1   
     8     3    26 1   
     9     3    27 1   
    10     4     5 1   
    11     4    28 1   
    12     4    29 1   
    13     5     6 1   
    14     6     7 ar  
    15     6    10 ar  
    16     7     8 ar  
    17     7    30 1   
    18     8     9 ar  
    19     8    31 1   
    20     9    11 ar  
    21     9    32 1   
    22    10    11 ar  
    23    10    33 1   
    24    11    12 1   
    25    12    13 1   
    26    13    14 1   
    27    13    34 1   
    28    13    35 1   
    29    14    15 ar  
    30    14    20 ar  
    31    15    16 ar  
    32    16    17 1   
    33    16    18 ar  
    34    17    36 1   
    35    17    37 1   
    36    18    19 ar  
    37    18    38 1   
    38    19    20 ar  
    39    19    21 1   
    40    20    39 1   
    41    21    40 1   
    42    21    41 1   
    43    21    42 1   
@<TRIPOS>SUBSTRUCTURE
     1 Q10         1 TEMP              0 ****  ****    0 ROOT
