@<TRIPOS>MOLECULE
Q11
   34    36     1     0     0
SMALL
No Charge or Current Charge


@<TRIPOS>ATOM
      1 C1          -3.4010     1.0320     0.2950 ca         1 Q11       0.445900
      2 N2          -4.3330     0.1770    -0.1310 nb         1 Q11      -0.353000
      3 C3          -3.8780    -1.0050    -0.5460 ca         1 Q11       0.437900
      4 N4          -2.6110    -1.4350    -0.5810 nb         1 Q11      -0.302000
      5 C5          -1.6640    -0.5760    -0.1520 ca         1 Q11       0.107000
      6 C6          -2.0260     0.7120     0.3090 ca         1 Q11      -0.227000
      7 C7          -0.3070    -0.9470    -0.1570 ca         1 Q11      -0.116000
      8 C8           0.7080    -0.0630     0.2790 cp         1 Q11       0.021000
      9 C9           0.3200     1.2170     0.7400 ca         1 Q11      -0.124000
     10 C10         -1.0290     1.6060     0.7550 ca         1 Q11      -0.060000
     11 N11         -3.9000     2.2220     0.7180 nv         1 Q11      -1.083900
     12 N12         -4.8150    -1.8770    -0.9750 nv         1 Q11      -1.084900
     13 C13          2.1430    -0.4930     0.2760 cp         1 Q11      -0.079000
     14 C14          2.4940    -1.7520     0.8240 ca         1 Q11      -0.061000
     15 C15          3.8280    -2.1890     0.8460 ca         1 Q11      -0.150000
     16 C16          4.8440    -1.3790     0.3170 ca         1 Q11      -0.068000
     17 C17          4.5250    -0.1310    -0.2400 ca         1 Q11      -0.203000
     18 C18          3.1840     0.3140    -0.2650 ca         1 Q11       0.155100
     19 O19          2.8240     1.5210    -0.8350 os         1 Q11      -0.335100
     20 C20          3.7860     2.4140    -1.4240 c3         1 Q11       0.147900
     21 H7          -0.0330    -1.9360    -0.5160 ha         1 Q11       0.132000
     22 H9           1.0750     1.9110     1.0990 ha         1 Q11       0.119000
     23 H10         -1.2830     2.6010     1.1130 ha         1 Q11       0.097000
     24 HN11        -4.9040     2.2790     0.8680 hn         1 Q11       0.498500
     25 HN1A        -3.3220     2.8070     1.3130 hn         1 Q11       0.498500
     26 HN12        -5.7840    -1.6860    -0.7330 hn         1 Q11       0.501500
     27 HN1B        -4.5530    -2.8560    -1.0610 hn         1 Q11       0.501500
     28 H14          1.7210    -2.3900     1.2470 ha         1 Q11       0.121000
     29 H15          4.0750    -3.1570     1.2760 ha         1 Q11       0.117000
     30 H16          5.8770    -1.7210     0.3350 ha         1 Q11       0.111000
     31 H17          5.3290     0.4730    -0.6510 ha         1 Q11       0.116000
     32 H20          3.2840     3.3090    -1.8130 h1         1 Q11       0.040367
     33 H20A         4.5270     2.7340    -0.6810 h1         1 Q11       0.040367
     34 H20B         4.3080     1.9280    -2.2580 h1         1 Q11       0.040367
@<TRIPOS>BOND
     1     1     2 ar  
     2     1     6 ar  
     3     1    11 1   
     4     2     3 ar  
     5     3     4 ar  
     6     3    12 1   
     7     4     5 ar  
     8     5     6 ar  
     9     5     7 ar  
    10     6    10 ar  
    11     7     8 ar  
    12     7    21 1   
    13     8     9 ar  
    14     8    13 1   
    15     9    10 ar  
    16     9    22 1   
    17    10    23 1   
    18    11    24 1   
    19    11    25 1   
    20    12    26 1   
    21    12    27 1   
    22    13    14 ar  
    23    13    18 ar  
    24    14    15 ar  
    25    14    28 1   
    26    15    16 ar  
    27    15    29 1   
    28    16    17 ar  
    29    16    30 1   
    30    17    18 ar  
    31    17    31 1   
    32    18    19 1   
    33    19    20 1   
    34    20    32 1   
    35    20    33 1   
    36    20    34 1   
@<TRIPOS>SUBSTRUCTURE
     1 Q11         1 TEMP              0 ****  ****    0 ROOT
