@<TRIPOS>MOLECULE
Q11
   34    36     1     0     0
SMALL
bcc


@<TRIPOS>ATOM
      1 C1          -3.3940     0.9910     0.4250 ca         1 Q11       0.774200
      2 N2          -4.2600     0.1420    -0.0840 nb         1 Q11      -0.879000
      3 C3          -3.7840    -1.0080    -0.6080 ca         1 Q11       0.963900
      4 N4          -2.5240    -1.3910    -0.6630 nb         1 Q11      -0.828000
      5 C5          -1.6180    -0.5320    -0.1450 ca         1 Q11       0.500600
      6 C6          -1.9810     0.7070     0.4230 ca         1 Q11      -0.357600
      7 C7          -0.2500    -0.8790    -0.1710 ca         1 Q11      -0.199300
      8 C8           0.7160    -0.0370     0.3330 cp         1 Q11       0.021000
      9 C9           0.3350     1.2030     0.8890 ca         1 Q11      -0.142000
     10 C10         -0.9890     1.5580     0.9350 ca         1 Q11      -0.078000
     11 N11         -3.8700     2.1250     0.9460 nv         1 Q11      -0.973500
     12 N12         -4.7150    -1.8270    -1.1270 nv         1 Q11      -0.974500
     13 C13          2.1340    -0.4630     0.3300 cp         1 Q11      -0.079000
     14 C14          2.4980    -1.6600     0.9350 ca         1 Q11      -0.079000
     15 C15          3.8180    -2.0940     0.9510 ca         1 Q11      -0.168000
     16 C16          4.7900    -1.3170     0.3440 ca         1 Q11      -0.086000
     17 C17          4.4530    -0.1200    -0.2780 ca         1 Q11      -0.221000
     18 C18          3.1290     0.3110    -0.2910 ca         1 Q11       0.155100
     19 O19          2.7150     1.4400    -0.8930 os         1 Q11      -0.311900
     20 C20          3.6640     2.2330    -1.5790 c3         1 Q11       0.124700
     21 H7           0.0260    -1.8300    -0.6100 ha         1 Q11       0.150000
     22 H9           1.0840     1.8660     1.3000 ha         1 Q11       0.137000
     23 H10         -1.2500     2.5110     1.3800 ha         1 Q11       0.115000
     24 HN11        -4.8600     2.3020     0.9260 hn         1 Q11       0.443300
     25 HN1A        -3.2820     2.8330     1.3450 hn         1 Q11       0.443300
     26 HN12        -5.6900    -1.5950    -1.0630 hn         1 Q11       0.446300
     27 HN1B        -4.4520    -2.7210    -1.5020 hn         1 Q11       0.446300
     28 H14          1.7310    -2.2550     1.4150 ha         1 Q11       0.139000
     29 H15          4.0790    -3.0250     1.4350 ha         1 Q11       0.135000
     30 H16          5.8240    -1.6350     0.3460 ha         1 Q11       0.129000
     31 H17          5.2320     0.4600    -0.7530 ha         1 Q11       0.134000
     32 H20          3.1160     3.0720    -2.0000 h1         1 Q11       0.040367
     33 H20A         4.4380     2.6190    -0.9090 h1         1 Q11       0.040367
     34 H20B         4.1440     1.6810    -2.3910 h1         1 Q11       0.040367
@<TRIPOS>BOND
     1     1     2 ar  
     2     1     6 ar  
     3     1    11 1   
     4     2     3 ar  
     5     3     4 ar  
     6     3    12 1   
     7     4     5 ar  
     8     5     6 ar  
     9     5     7 ar  
    10     6    10 ar  
    11     7     8 ar  
    12     7    21 1   
    13     8     9 ar  
    14     8    13 1   
    15     9    10 ar  
    16     9    22 1   
    17    10    23 1   
    18    11    24 1   
    19    11    25 1   
    20    12    26 1   
    21    12    27 1   
    22    13    14 ar  
    23    13    18 ar  
    24    14    15 ar  
    25    14    28 1   
    26    15    16 ar  
    27    15    29 1   
    28    16    17 ar  
    29    16    30 1   
    30    17    18 ar  
    31    17    31 1   
    32    18    19 1   
    33    19    20 1   
    34    20    32 1   
    35    20    33 1   
    36    20    34 1   
@<TRIPOS>SUBSTRUCTURE
     1 Q11         1 TEMP              0 ****  ****    0 ROOT
