@<TRIPOS>MOLECULE
Q12
   41    43     1     0     0
SMALL
bcc


@<TRIPOS>ATOM
      1 C1          -4.3860     0.7310    -0.3060 ca         1 Q12       0.771200
      2 N2          -5.0730    -0.3230     0.0800 nb         1 Q12      -0.872000
      3 C3          -4.3880    -1.3890     0.5450 ca         1 Q12       0.944900
      4 N4          -3.0830    -1.4970     0.6700 nb         1 Q12      -0.817000
      5 C5          -2.3580    -0.4250     0.2740 ca         1 Q12       0.493600
      6 C6          -2.9470     0.7470    -0.2370 ca         1 Q12      -0.349600
      7 C7          -2.1350     1.8170    -0.6420 ca         1 Q12      -0.078000
      8 C8          -0.7620     1.7750    -0.5440 ca         1 Q12      -0.099300
      9 C9          -0.1640     0.5990    -0.0150 cp         1 Q12       0.012000
     10 C10         -0.9530    -0.4630     0.3710 ca         1 Q12      -0.196300
     11 N11         -5.0680     1.7820    -0.7680 nv         1 Q12      -0.971500
     12 N12         -5.1480    -2.4580     0.8800 nv         1 Q12      -0.945500
     13 C13          0.0570     2.9370    -1.0300 c3         1 Q12      -0.039800
     14 C14          1.3060     0.4690     0.1160 cp         1 Q12      -0.042000
     15 C15          2.0560     1.3670     0.8560 ca         1 Q12      -0.111000
     16 C16          3.4320     1.1970     0.9970 ca         1 Q12      -0.193000
     17 C17          4.0770     0.1300     0.3960 ca         1 Q12       0.115100
     18 C18          3.3230    -0.7920    -0.3600 ca         1 Q12       0.110100
     19 C19          1.9570    -0.6140    -0.4890 ca         1 Q12      -0.176000
     20 O20          4.0230    -1.8010    -0.9110 os         1 Q12      -0.299900
     21 C21          3.3160    -2.7870    -1.6350 c3         1 Q12       0.121700
     22 O22          5.3970    -0.1200     0.4700 os         1 Q12      -0.297900
     23 C23          6.1970     0.7540     1.2400 c3         1 Q12       0.122700
     24 H7          -2.5820     2.7090    -1.0620 ha         1 Q12       0.116000
     25 H10         -0.4980    -1.3580     0.7780 ha         1 Q12       0.152000
     26 HN11        -6.0740     1.7550    -0.7750 hn         1 Q12       0.443800
     27 HN1A        -4.6270     2.6410    -1.0380 hn         1 Q12       0.443800
     28 HN12        -6.1330    -2.3130     1.0180 hn         1 Q12       0.431800
     29 HN1B        -4.7220    -3.1840     1.4300 hn         1 Q12       0.431800
     30 H13          0.4810     3.5160    -0.2090 hc         1 Q12       0.041033
     31 H13A         0.8910     2.6120    -1.6520 hc         1 Q12       0.041033
     32 H13B        -0.5570     3.6180    -1.6190 hc         1 Q12       0.041033
     33 H15          1.5810     2.2010     1.3540 ha         1 Q12       0.135000
     34 H16          3.9840     1.9130     1.5910 ha         1 Q12       0.136000
     35 H19          1.3690    -1.3100    -1.0730 ha         1 Q12       0.144000
     36 H21          2.5690    -3.2900    -1.0140 h1         1 Q12       0.040367
     37 H21A         2.8190    -2.3720    -2.5160 h1         1 Q12       0.040367
     38 H21B         4.0520    -3.5180    -1.9600 h1         1 Q12       0.040367
     39 H23          5.8820     0.7790     2.2860 h1         1 Q12       0.039367
     40 H23A         7.2130     0.3690     1.1880 h1         1 Q12       0.039367
     41 H23B         6.1860     1.7730     0.8440 h1         1 Q12       0.039367
@<TRIPOS>BOND
     1     1     2 ar  
     2     1     6 ar  
     3     1    11 1   
     4     2     3 ar  
     5     3     4 ar  
     6     3    12 1   
     7     4     5 ar  
     8     5     6 ar  
     9     5    10 ar  
    10     6     7 ar  
    11     7     8 ar  
    12     7    24 1   
    13     8     9 ar  
    14     8    13 1   
    15     9    10 ar  
    16     9    14 1   
    17    10    25 1   
    18    11    26 1   
    19    11    27 1   
    20    12    28 1   
    21    12    29 1   
    22    13    30 1   
    23    13    31 1   
    24    13    32 1   
    25    14    15 ar  
    26    14    19 ar  
    27    15    16 ar  
    28    15    33 1   
    29    16    17 ar  
    30    16    34 1   
    31    17    18 ar  
    32    17    22 1   
    33    18    19 ar  
    34    18    20 1   
    35    19    35 1   
    36    20    21 1   
    37    21    36 1   
    38    21    37 1   
    39    21    38 1   
    40    22    23 1   
    41    23    39 1   
    42    23    40 1   
    43    23    41 1   
@<TRIPOS>SUBSTRUCTURE
     1 Q12         1 TEMP              0 ****  ****    0 ROOT
