@<TRIPOS>MOLECULE
Q12
   41    43     1     0     0
SMALL
No Charge or Current Charge


@<TRIPOS>ATOM
      1 C1          -4.4060     0.7490    -0.3360 ca         1 Q12       0.442900
      2 N2          -5.1620    -0.2860     0.0370 nb         1 Q12      -0.346000
      3 C3          -4.4950    -1.3490     0.4910 ca         1 Q12       0.418900
      4 N4          -3.1700    -1.4950     0.6200 nb         1 Q12      -0.291000
      5 C5          -2.4020    -0.4520     0.2450 ca         1 Q12       0.100000
      6 C6          -2.9960     0.7280    -0.2550 ca         1 Q12      -0.219000
      7 C7          -2.1840     1.8120    -0.6530 ca         1 Q12      -0.060000
      8 C8          -0.7810     1.7360    -0.5520 ca         1 Q12      -0.099300
      9 C9          -0.1720     0.5590    -0.0320 cp         1 Q12       0.012000
     10 C10         -1.0040    -0.5200     0.3470 ca         1 Q12      -0.113000
     11 N11         -5.1200     1.8150    -0.7840 nv         1 Q12      -1.081900
     12 N12         -5.2530    -2.4000     0.8730 nv         1 Q12      -1.055900
     13 C13          0.0410     2.9280    -1.0370 c3         1 Q12      -0.039800
     14 C14          1.3090     0.4190     0.1140 cp         1 Q12      -0.042000
     15 C15          2.0630     1.3470     0.8680 ca         1 Q12      -0.093000
     16 C16          3.4530     1.2070     1.0140 ca         1 Q12      -0.175000
     17 C17          4.1240     0.1210     0.4090 ca         1 Q12       0.115100
     18 C18          3.3860    -0.8260    -0.3410 ca         1 Q12       0.110100
     19 C19          1.9870    -0.6720    -0.4790 ca         1 Q12      -0.158000
     20 O20          4.0650    -1.8860    -0.9220 os         1 Q12      -0.323100
     21 C21          3.4000    -2.8970    -1.7000 c3         1 Q12       0.144900
     22 O22          5.4940    -0.0490     0.5310 os         1 Q12      -0.321100
     23 C23          6.3230     0.8630     1.2720 c3         1 Q12       0.145900
     24 H7          -2.6330     2.7180    -1.0530 ha         1 Q12       0.098000
     25 H10         -0.5480    -1.4250     0.7410 ha         1 Q12       0.134000
     26 HN11        -6.1210     1.8130    -0.6080 hn         1 Q12       0.499000
     27 HN1A        -4.6710     2.7250    -0.8100 hn         1 Q12       0.499000
     28 HN12        -6.2480    -2.2460     1.0100 hn         1 Q12       0.487000
     29 HN1B        -4.8190    -3.1280     1.4350 hn         1 Q12       0.487000
     30 H13          0.3040     3.5900    -0.2050 hc         1 Q12       0.041033
     31 H13A         0.9700     2.6070    -1.5230 hc         1 Q12       0.041033
     32 H13B        -0.5110     3.5260    -1.7720 hc         1 Q12       0.041033
     33 H15          1.5590     2.1800     1.3530 ha         1 Q12       0.117000
     34 H16          3.9880     1.9470     1.6020 ha         1 Q12       0.118000
     35 H19          1.4030    -1.3850    -1.0520 ha         1 Q12       0.126000
     36 H21          2.6510    -3.4250    -1.0960 h1         1 Q12       0.040367
     37 H21A         2.9030    -2.4550    -2.5730 h1         1 Q12       0.040367
     38 H21B         4.1260    -3.6360    -2.0610 h1         1 Q12       0.040367
     39 H23          6.0160     0.9020     2.3250 h1         1 Q12       0.039367
     40 H23A         7.3710     0.5390     1.2360 h1         1 Q12       0.039367
     41 H23B         6.2650     1.8740     0.8490 h1         1 Q12       0.039367
@<TRIPOS>BOND
     1     1     2 ar  
     2     1     6 ar  
     3     1    11 1   
     4     2     3 ar  
     5     3     4 ar  
     6     3    12 1   
     7     4     5 ar  
     8     5     6 ar  
     9     5    10 ar  
    10     6     7 ar  
    11     7     8 ar  
    12     7    24 1   
    13     8     9 ar  
    14     8    13 1   
    15     9    10 ar  
    16     9    14 1   
    17    10    25 1   
    18    11    26 1   
    19    11    27 1   
    20    12    28 1   
    21    12    29 1   
    22    13    30 1   
    23    13    31 1   
    24    13    32 1   
    25    14    15 ar  
    26    14    19 ar  
    27    15    16 ar  
    28    15    33 1   
    29    16    17 ar  
    30    16    34 1   
    31    17    18 ar  
    32    17    22 1   
    33    18    19 ar  
    34    18    20 1   
    35    19    35 1   
    36    20    21 1   
    37    21    36 1   
    38    21    37 1   
    39    21    38 1   
    40    22    23 1   
    41    23    39 1   
    42    23    40 1   
    43    23    41 1   
@<TRIPOS>SUBSTRUCTURE
     1 Q12         1 TEMP              0 ****  ****    0 ROOT
