@<TRIPOS>MOLECULE
Q13
   52    53     1     0     0
SMALL
abcg2


@<TRIPOS>ATOM
      1 N22          7.3370     1.3370    -1.0210 nv         1 Q13      -1.061900
      2 C22          6.1460     1.1260    -0.3900 ca         1 Q13       0.605900
      3 C23          5.7390     1.9580     0.6690 ca         1 Q13      -0.231000
      4 C24          4.5040     1.7530     1.2440 ca         1 Q13      -0.002300
      5 C27          4.0250     2.6010     2.3820 c3         1 Q13      -0.053800
      6 C25          3.6990     0.7180     0.7480 ca         1 Q13      -0.193000
      7 N21          5.3850     0.1390    -0.8450 nb         1 Q13      -0.762000
      8 C26          4.1890    -0.0550    -0.2860 ca         1 Q13       0.391300
      9 C16          3.4160    -1.1980    -0.8860 c3         1 Q13       0.109300
     10 O15          2.2090    -1.3820    -0.2080 os         1 Q13      -0.472000
     11 C13          1.3510    -2.3690    -0.7480 c3         1 Q13       0.136300
     12 C14          1.8590    -3.7800    -0.4880 c3         1 Q13      -0.126100
     13 C11         -0.0370    -2.1340    -0.1340 c3         1 Q13       0.172500
     14 N12         -0.1020    -2.2740     1.3100 n8         1 Q13      -0.983200
     15 C10         -0.5730    -0.7720    -0.5520 c3         1 Q13       0.176600
     16 O09         -1.9470    -0.7100    -0.2620 os         1 Q13      -0.447000
     17 C08         -2.5260     0.5080    -0.6230 c3         1 Q13       0.107300
     18 C06         -3.9910     0.5220    -0.2850 ca         1 Q13       0.393300
     19 N01         -4.6180     1.6470    -0.6350 nb         1 Q13      -0.760000
     20 C02         -5.9150     1.7580    -0.3760 ca         1 Q13       0.597900
     21 N02         -6.5370     2.9020    -0.7880 nv         1 Q13      -1.055900
     22 C03         -6.6430     0.7340     0.2560 ca         1 Q13      -0.230000
     23 C04         -5.9900    -0.4250     0.6180 ca         1 Q13      -0.006300
     24 C05         -4.6210    -0.5350     0.3380 ca         1 Q13      -0.186000
     25 C07         -6.7150    -1.5520     1.2880 c3         1 Q13      -0.052800
     26 H1           8.0370     1.8740    -0.5390 hn         1 Q13       0.471000
     27 H2           7.6980     0.5740    -1.5690 hn         1 Q13       0.471000
     28 H3           6.3940     2.7440     1.0260 ha         1 Q13       0.119000
     29 H4           3.0470     3.0310     2.1630 hc         1 Q13       0.047033
     30 H5           3.9150     2.0040     3.2880 hc         1 Q13       0.047033
     31 H6           4.7150     3.4150     2.5980 hc         1 Q13       0.047033
     32 H7           2.7230     0.5310     1.1710 ha         1 Q13       0.137000
     33 H8           3.2420    -0.9860    -1.9520 h1         1 Q13       0.043200
     34 H9           4.0510    -2.0930    -0.8510 h1         1 Q13       0.043200
     35 H10          1.2670    -2.2270    -1.8370 h1         1 Q13       0.040700
     36 H11          2.8130    -3.9690    -0.9790 hc         1 Q13       0.044033
     37 H12          1.9900    -3.9670     0.5790 hc         1 Q13       0.044033
     38 H13          1.1480    -4.5100    -0.8770 hc         1 Q13       0.044033
     39 H14         -0.6960    -2.8910    -0.5720 h1         1 Q13       0.071700
     40 H15          0.1010    -3.2280     1.5780 hn         1 Q13       0.399500
     41 H16          0.6160    -1.7030     1.7420 hn         1 Q13       0.399500
     42 H18         -0.0320     0.0330    -0.0340 h1         1 Q13       0.028200
     43 H19         -0.4040    -0.6270    -1.6290 h1         1 Q13       0.028200
     44 H20         -2.0370     1.3500    -0.1090 h1         1 Q13       0.040200
     45 H21         -2.4120     0.7040    -1.7000 h1         1 Q13       0.040200
     46 H22         -5.9390     3.6920    -0.9670 hn         1 Q13       0.465500
     47 H23         -7.4060     3.1420    -0.3410 hn         1 Q13       0.465500
     48 H24         -7.6990     0.8640     0.4580 ha         1 Q13       0.117000
     49 H25         -4.0770    -1.4270     0.6160 ha         1 Q13       0.144000
     50 H26         -6.7760    -2.4170     0.6270 hc         1 Q13       0.046033
     51 H27         -6.1880    -1.8730     2.1870 hc         1 Q13       0.046033
     52 H28         -7.7290    -1.2720     1.5690 hc         1 Q13       0.046033
@<TRIPOS>BOND
     1     1     2 1   
     2     1    26 1   
     3     1    27 1   
     4     2     3 ar  
     5     2     7 ar  
     6     3     4 ar  
     7     3    28 1   
     8     4     5 1   
     9     4     6 ar  
    10     5    29 1   
    11     5    30 1   
    12     5    31 1   
    13     6     8 ar  
    14     6    32 1   
    15     7     8 ar  
    16     8     9 1   
    17     9    10 1   
    18     9    33 1   
    19     9    34 1   
    20    10    11 1   
    21    11    12 1   
    22    11    13 1   
    23    11    35 1   
    24    12    36 1   
    25    12    37 1   
    26    12    38 1   
    27    13    14 1   
    28    13    15 1   
    29    13    39 1   
    30    14    40 1   
    31    14    41 1   
    32    15    16 1   
    33    15    42 1   
    34    15    43 1   
    35    16    17 1   
    36    17    18 1   
    37    17    44 1   
    38    17    45 1   
    39    18    19 ar  
    40    18    24 ar  
    41    19    20 ar  
    42    20    21 1   
    43    20    22 ar  
    44    21    46 1   
    45    21    47 1   
    46    22    23 ar  
    47    22    48 1   
    48    23    24 ar  
    49    23    25 1   
    50    24    49 1   
    51    25    50 1   
    52    25    51 1   
    53    25    52 1   
@<TRIPOS>SUBSTRUCTURE
     1 Q13         1 TEMP              0 ****  ****    0 ROOT
