@<TRIPOS>MOLECULE
Q13
   52    53     1     0     0
SMALL
No Charge or Current Charge


@<TRIPOS>ATOM
      1 N22          5.9590     2.7840    -1.1340 nv         1 Q13      -1.061900
      2 C22          5.4900     1.8820    -0.2720 ca         1 Q13       0.605900
      3 C23          5.6910     1.9520     1.1080 ca         1 Q13      -0.231000
      4 C24          5.1570     0.9350     1.9130 ca         1 Q13      -0.002300
      5 C27          5.3380     0.9440     3.4220 c3         1 Q13      -0.053800
      6 C25          4.4550    -0.0960     1.2680 ca         1 Q13      -0.193000
      7 N21          4.8340     0.9190    -0.9010 nb         1 Q13      -0.762000
      8 C26          4.3090    -0.0710    -0.1340 ca         1 Q13       0.391300
      9 C16          3.5540    -1.1950    -0.8550 c3         1 Q13       0.109300
     10 O15          2.2150    -1.3300    -0.3150 os         1 Q13      -0.472000
     11 C13          1.3440    -2.2740    -0.9840 c3         1 Q13       0.136300
     12 C14          1.8790    -3.7100    -0.7470 c3         1 Q13      -0.126100
     13 C11         -0.1060    -2.0600    -0.4380 c3         1 Q13       0.172500
     14 N12         -0.1650    -2.2400     1.0470 n8         1 Q13      -0.983200
     15 C10         -0.6720    -0.6780    -0.8920 c3         1 Q13       0.176600
     16 O09         -2.0840    -0.6180    -0.5990 os         1 Q13      -0.447000
     17 C08         -2.7180     0.6290    -0.9610 c3         1 Q13       0.107300
     18 C06         -4.2080     0.5990    -0.5970 ca         1 Q13       0.393300
     19 N01         -5.0960     0.8730    -1.5870 nb         1 Q13      -0.760000
     20 C02         -6.3800     0.8530    -1.2640 ca         1 Q13       0.597900
     21 N02         -7.1440     1.1430    -2.3180 nv         1 Q13      -1.055900
     22 C03         -6.8880     0.5840     0.0090 ca         1 Q13      -0.230000
     23 C04         -5.9830     0.3020     1.0430 ca         1 Q13      -0.006300
     24 C05         -4.6150     0.3150     0.7240 ca         1 Q13      -0.186000
     25 C07         -6.4620     0.0020     2.4530 c3         1 Q13      -0.052800
     26 H1           6.7460     3.3480    -0.8340 hn         1 Q13       0.471000
     27 H2           5.9500     2.4950    -2.1040 hn         1 Q13       0.471000
     28 H3           6.2470     2.7770     1.5430 ha         1 Q13       0.119000
     29 H4           4.4810     0.4850     3.9280 hc         1 Q13       0.047033
     30 H5           6.2370     0.3860     3.7100 hc         1 Q13       0.047033
     31 H6           5.4400     1.9660     3.8060 hc         1 Q13       0.047033
     32 H7           4.0220    -0.9120     1.8390 ha         1 Q13       0.137000
     33 H8           3.5110    -0.9750    -1.9300 h1         1 Q13       0.043200
     34 H9           4.1230    -2.1240    -0.7260 h1         1 Q13       0.043200
     35 H10          1.3300    -2.0850    -2.0670 h1         1 Q13       0.040700
     36 H11          2.7930    -3.8890    -1.3250 hc         1 Q13       0.044033
     37 H12          2.0980    -3.8840     0.3130 hc         1 Q13       0.044033
     38 H13          1.1390    -4.4510    -1.0720 hc         1 Q13       0.044033
     39 H14         -0.7460    -2.8290    -0.8960 h1         1 Q13       0.071700
     40 H15          0.1620    -3.1850     1.2730 hn         1 Q13       0.399500
     41 H16          0.5700    -1.6450     1.4460 hn         1 Q13       0.399500
     42 H18         -0.1320     0.1290    -0.3780 h1         1 Q13       0.028200
     43 H19         -0.5080    -0.5610    -1.9720 h1         1 Q13       0.028200
     44 H20         -2.2470     1.4650    -0.4280 h1         1 Q13       0.040200
     45 H21         -2.6060     0.8150    -2.0370 h1         1 Q13       0.040200
     46 H22         -6.6470     1.5450    -3.1030 hn         1 Q13       0.465500
     47 H23         -8.0770     1.4980    -2.1410 hn         1 Q13       0.465500
     48 H24         -7.9590     0.5930     0.1890 ha         1 Q13       0.117000
     49 H25         -3.8670     0.1060     1.4830 ha         1 Q13       0.144000
     50 H26         -7.4660    -0.4390     2.4490 hc         1 Q13       0.046033
     51 H27         -5.7930    -0.7040     2.9590 hc         1 Q13       0.046033
     52 H28         -6.5000     0.9180     3.0550 hc         1 Q13       0.046033
@<TRIPOS>BOND
     1     1     2 1   
     2     1    26 1   
     3     1    27 1   
     4     2     3 ar  
     5     2     7 ar  
     6     3     4 ar  
     7     3    28 1   
     8     4     5 1   
     9     4     6 ar  
    10     5    29 1   
    11     5    30 1   
    12     5    31 1   
    13     6     8 ar  
    14     6    32 1   
    15     7     8 ar  
    16     8     9 1   
    17     9    10 1   
    18     9    33 1   
    19     9    34 1   
    20    10    11 1   
    21    11    12 1   
    22    11    13 1   
    23    11    35 1   
    24    12    36 1   
    25    12    37 1   
    26    12    38 1   
    27    13    14 1   
    28    13    15 1   
    29    13    39 1   
    30    14    40 1   
    31    14    41 1   
    32    15    16 1   
    33    15    42 1   
    34    15    43 1   
    35    16    17 1   
    36    17    18 1   
    37    17    44 1   
    38    17    45 1   
    39    18    19 ar  
    40    18    24 ar  
    41    19    20 ar  
    42    20    21 1   
    43    20    22 ar  
    44    21    46 1   
    45    21    47 1   
    46    22    23 ar  
    47    22    48 1   
    48    23    24 ar  
    49    23    25 1   
    50    24    49 1   
    51    25    50 1   
    52    25    51 1   
    53    25    52 1   
@<TRIPOS>SUBSTRUCTURE
     1 Q13         1 TEMP              0 ****  ****    0 ROOT
