@<TRIPOS>MOLECULE
Q14
   52    53     1     0     0
SMALL
abcg2


@<TRIPOS>ATOM
      1 N22          6.7630     1.8910     1.0390 nv         1 Q14      -1.056900
      2 C22          5.5480     1.6070     0.4860 ca         1 Q14       0.600900
      3 C23          4.8410     2.5880    -0.2320 ca         1 Q14      -0.234000
      4 C24          3.6420     2.2480    -0.8240 ca         1 Q14      -0.004300
      5 C27          2.8600     3.2470    -1.6210 c3         1 Q14      -0.052800
      6 C25          3.1750     0.9360    -0.6780 ca         1 Q14      -0.197000
      7 N21          5.0960     0.3670     0.6220 nb         1 Q14      -0.759000
      8 C26          3.9330     0.0430     0.0540 ca         1 Q14       0.388300
      9 C28          3.5140    -1.3840     0.2920 c3         1 Q14       0.117300
     10 O29          2.3250    -1.6750    -0.3870 os         1 Q14      -0.465000
     11 C12          1.4680    -2.6340     0.2000 c3         1 Q14       0.188300
     12 C13          1.8260    -4.0570    -0.2120 c3         1 Q14       0.119800
     13 N14          3.1430    -4.4460     0.2630 n8         1 Q14      -0.994200
     14 C11          0.0390    -2.2990    -0.2040 c3         1 Q14      -0.081400
     15 C10         -0.4040    -0.9280     0.2680 c3         1 Q14       0.169600
     16 O09         -1.7790    -0.7850    -0.0060 os         1 Q14      -0.467000
     17 C08         -2.2900     0.4560     0.3850 c3         1 Q14       0.109300
     18 C06         -3.7630     0.5430     0.0950 ca         1 Q14       0.392300
     19 N01         -4.3130     1.7090     0.4390 nb         1 Q14      -0.760000
     20 C02         -5.6130     1.8840     0.2340 ca         1 Q14       0.599900
     21 N02         -6.1560     3.0690     0.6400 nv         1 Q14      -1.054900
     22 C03         -6.4220     0.8830    -0.3330 ca         1 Q14      -0.230000
     23 C05         -4.4760    -0.4950    -0.4700 ca         1 Q14      -0.190000
     24 C04         -5.8480    -0.3170    -0.6940 ca         1 Q14      -0.005300
     25 C07         -6.6580    -1.4040    -1.3310 c3         1 Q14      -0.053800
     26 H1           7.0800     1.2670     1.7630 hn         1 Q14       0.467500
     27 H2           6.9840     2.8590     1.2060 hn         1 Q14       0.467500
     28 H3           5.2350     3.5940    -0.3120 ha         1 Q14       0.117000
     29 H4           3.0190     3.0890    -2.6900 hc         1 Q14       0.045700
     30 H5           1.7900     3.1470    -1.4380 hc         1 Q14       0.045700
     31 H6           3.1550     4.2690    -1.3910 hc         1 Q14       0.045700
     32 H7           2.2380     0.6370    -1.1250 ha         1 Q14       0.135000
     33 H8           4.3260    -2.0520    -0.0120 h1         1 Q14       0.054700
     34 H9           3.3960    -1.5270     1.3760 h1         1 Q14       0.054700
     35 H10          1.5400    -2.5630     1.2980 h1         1 Q14       0.028700
     36 H11          1.0200    -4.7180     0.1380 h1         1 Q14       0.038700
     37 H12          1.8200    -4.1150    -1.3040 h1         1 Q14       0.038700
     38 H13          3.1240    -4.5380     1.2720 hn         1 Q14       0.393500
     39 H14          3.3670    -5.3670    -0.0910 hn         1 Q14       0.393500
     40 H16         -0.0680    -2.3760    -1.2900 hc         1 Q14       0.060200
     41 H17         -0.6210    -3.0520     0.2350 hc         1 Q14       0.060200
     42 H18         -0.2160    -0.8230     1.3470 h1         1 Q14       0.029200
     43 H19          0.1670    -0.1370    -0.2330 h1         1 Q14       0.029200
     44 H20         -2.1330     0.6300     1.4600 h1         1 Q14       0.043200
     45 H21         -1.7780     1.2800    -0.1350 h1         1 Q14       0.043200
     46 H22         -5.5090     3.8280     0.7810 hn         1 Q14       0.467000
     47 H23         -7.0270     3.3460     0.2210 hn         1 Q14       0.467000
     48 H24         -7.4810     1.0600    -0.4830 ha         1 Q14       0.118000
     49 H25         -3.9950    -1.4250    -0.7380 ha         1 Q14       0.138000
     50 H26         -6.4930    -1.4180    -2.4100 hc         1 Q14       0.046033
     51 H27         -6.3720    -2.3850    -0.9510 hc         1 Q14       0.046033
     52 H28         -7.7250    -1.2670    -1.1610 hc         1 Q14       0.046033
@<TRIPOS>BOND
     1     1     2 1   
     2     1    26 1   
     3     1    27 1   
     4     2     3 ar  
     5     2     7 ar  
     6     3     4 ar  
     7     3    28 1   
     8     4     5 1   
     9     4     6 ar  
    10     5    29 1   
    11     5    30 1   
    12     5    31 1   
    13     6     8 ar  
    14     6    32 1   
    15     7     8 ar  
    16     8     9 1   
    17     9    10 1   
    18     9    33 1   
    19     9    34 1   
    20    10    11 1   
    21    11    12 1   
    22    11    14 1   
    23    11    35 1   
    24    12    13 1   
    25    12    36 1   
    26    12    37 1   
    27    13    38 1   
    28    13    39 1   
    29    14    15 1   
    30    14    40 1   
    31    14    41 1   
    32    15    16 1   
    33    15    42 1   
    34    15    43 1   
    35    16    17 1   
    36    17    18 1   
    37    17    44 1   
    38    17    45 1   
    39    18    19 ar  
    40    18    23 ar  
    41    19    20 ar  
    42    20    21 1   
    43    20    22 ar  
    44    21    46 1   
    45    21    47 1   
    46    22    24 ar  
    47    22    48 1   
    48    23    24 ar  
    49    23    49 1   
    50    24    25 1   
    51    25    50 1   
    52    25    51 1   
    53    25    52 1   
@<TRIPOS>SUBSTRUCTURE
     1 Q14         1 TEMP              0 ****  ****    0 ROOT
