@<TRIPOS>MOLECULE
Q14
   52    53     1     0     0
SMALL
No Charge or Current Charge


@<TRIPOS>ATOM
      1 N22          5.7240     2.2140     2.3430 nv         1 Q14      -1.056900
      2 C22          5.2430     1.8510     1.1540 ca         1 Q14       0.600900
      3 C23          5.3000     2.6600     0.0170 ca         1 Q14      -0.234000
      4 C24          4.7520     2.1700    -1.1780 ca         1 Q14      -0.004300
      5 C27          4.7830     2.9910    -2.4570 c3         1 Q14      -0.052800
      6 C25          4.1800     0.8880    -1.1480 ca         1 Q14      -0.197000
      7 N21          4.7040     0.6430     1.2070 nb         1 Q14      -0.759000
      8 C26          4.1690     0.1560     0.0580 ca         1 Q14       0.388300
      9 C28          3.5510    -1.2460     0.1070 c3         1 Q14       0.117300
     10 O29          2.1700    -1.2010    -0.3290 os         1 Q14      -0.465000
     11 C12          1.3820    -2.4020    -0.1360 c3         1 Q14       0.188300
     12 C13          1.8840    -3.5570    -1.0700 c3         1 Q14       0.119800
     13 N14          3.0810    -4.2950    -0.5790 n8         1 Q14      -0.994200
     14 C11         -0.0800    -2.0140    -0.4500 c3         1 Q14      -0.081400
     15 C10         -0.6350    -0.9160     0.4780 c3         1 Q14       0.169600
     16 O09         -2.0170    -0.7150     0.1360 os         1 Q14      -0.467000
     17 C08         -2.6890     0.2910     0.9250 c3         1 Q14       0.109300
     18 C06         -4.1570     0.4210     0.4960 ca         1 Q14       0.392300
     19 N01         -4.5920     1.6540     0.1310 nb         1 Q14      -0.760000
     20 C02         -5.8620     1.7600    -0.2310 ca         1 Q14       0.599900
     21 N02         -6.1590     3.0140    -0.5740 nv         1 Q14      -1.054900
     22 C03         -6.7800     0.7090    -0.2670 ca         1 Q14      -0.230000
     23 C05         -5.0040    -0.7060     0.5020 ca         1 Q14      -0.190000
     24 C04         -6.3470    -0.5700     0.1130 ca         1 Q14      -0.005300
     25 C07         -7.2900    -1.7620     0.0990 c3         1 Q14      -0.053800
     26 H1           5.4080     1.6450     3.1180 hn         1 Q14       0.467500
     27 H2           5.8350     3.2060     2.5230 hn         1 Q14       0.467500
     28 H3           5.7610     3.6410     0.0610 ha         1 Q14       0.117000
     29 H4           5.6790     2.7620    -3.0450 hc         1 Q14       0.045700
     30 H5           3.9070     2.7840    -3.0840 hc         1 Q14       0.045700
     31 H6           4.7880     4.0660    -2.2410 hc         1 Q14       0.045700
     32 H7           3.7420     0.4560    -2.0430 ha         1 Q14       0.135000
     33 H8           4.1460    -1.8960    -0.5460 h1         1 Q14       0.054700
     34 H9           3.6200    -1.6390     1.1300 h1         1 Q14       0.054700
     35 H10          1.4290    -2.7350     0.9100 h1         1 Q14       0.028700
     36 H11          1.0750    -4.2900    -1.1910 h1         1 Q14       0.038700
     37 H12          2.1060    -3.1450    -2.0650 h1         1 Q14       0.038700
     38 H13          2.8460    -4.7800     0.2960 hn         1 Q14       0.393500
     39 H14          3.2930    -5.0640    -1.2280 hn         1 Q14       0.393500
     40 H16         -0.1530    -1.6790    -1.4920 hc         1 Q14       0.060200
     41 H17         -0.7120    -2.9050    -0.3540 hc         1 Q14       0.060200
     42 H18         -0.5390    -1.2370     1.5240 h1         1 Q14       0.029200
     43 H19         -0.0640     0.0120     0.3440 h1         1 Q14       0.029200
     44 H20         -2.6620     0.0240     1.9900 h1         1 Q14       0.043200
     45 H21         -2.1870     1.2620     0.8140 h1         1 Q14       0.043200
     46 H22         -5.3570     3.6110    -0.7290 hn         1 Q14       0.467000
     47 H23         -6.9580     3.1580    -1.1820 hn         1 Q14       0.467000
     48 H24         -7.8050     0.8830    -0.5810 ha         1 Q14       0.118000
     49 H25         -4.6100    -1.6730     0.8030 ha         1 Q14       0.138000
     50 H26         -7.2400    -2.2870    -0.8620 hc         1 Q14       0.046033
     51 H27         -7.0360    -2.4800     0.8880 hc         1 Q14       0.046033
     52 H28         -8.3290    -1.4510     0.2580 hc         1 Q14       0.046033
@<TRIPOS>BOND
     1     1     2 1   
     2     1    26 1   
     3     1    27 1   
     4     2     3 ar  
     5     2     7 ar  
     6     3     4 ar  
     7     3    28 1   
     8     4     5 1   
     9     4     6 ar  
    10     5    29 1   
    11     5    30 1   
    12     5    31 1   
    13     6     8 ar  
    14     6    32 1   
    15     7     8 ar  
    16     8     9 1   
    17     9    10 1   
    18     9    33 1   
    19     9    34 1   
    20    10    11 1   
    21    11    12 1   
    22    11    14 1   
    23    11    35 1   
    24    12    13 1   
    25    12    36 1   
    26    12    37 1   
    27    13    38 1   
    28    13    39 1   
    29    14    15 1   
    30    14    40 1   
    31    14    41 1   
    32    15    16 1   
    33    15    42 1   
    34    15    43 1   
    35    16    17 1   
    36    17    18 1   
    37    17    44 1   
    38    17    45 1   
    39    18    19 ar  
    40    18    23 ar  
    41    19    20 ar  
    42    20    21 1   
    43    20    22 ar  
    44    21    46 1   
    45    21    47 1   
    46    22    24 ar  
    47    22    48 1   
    48    23    24 ar  
    49    23    49 1   
    50    24    25 1   
    51    25    50 1   
    52    25    51 1   
    53    25    52 1   
@<TRIPOS>SUBSTRUCTURE
     1 Q14         1 TEMP              0 ****  ****    0 ROOT
