@<TRIPOS>MOLECULE
Q15
   49    51     1     0     0
SMALL
No Charge or Current Charge


@<TRIPOS>ATOM
      1 N02          6.9260     0.2590     2.2280 nv         1 Q15      -1.057900
      2 C02          6.1480     0.5610     1.1880 ca         1 Q15       0.604900
      3 C03          6.3600     1.6630     0.3570 ca         1 Q15      -0.229000
      4 C04          5.4780     1.8690    -0.7140 ca         1 Q15      -0.002300
      5 C07          5.6470     3.0450    -1.6620 c3         1 Q15      -0.054800
      6 N01          5.1760    -0.3260     1.0490 nb         1 Q15      -0.762000
      7 C06          4.3130    -0.1370     0.0190 ca         1 Q15       0.389300
      8 C05          4.4360     0.9420    -0.8800 ca         1 Q15      -0.189000
      9 C08          3.1880    -1.1620    -0.1520 c3         1 Q15       0.111300
     10 O09          1.9050    -0.5010    -0.0910 os         1 Q15      -0.348100
     11 C11          0.7170    -1.1870    -0.2330 ca         1 Q15       0.182100
     12 C16         -0.4750    -0.4520    -0.1620 ca         1 Q15      -0.190000
     13 C15         -1.7170    -1.0890    -0.3000 ca         1 Q15       0.181100
     14 C14         -1.7660    -2.4830    -0.5120 ca         1 Q15      -0.236000
     15 C13         -0.5750    -3.2250    -0.5830 ca         1 Q15      -0.036000
     16 C12          0.6650    -2.5810    -0.4450 ca         1 Q15      -0.235000
     17 O28         -2.8510    -0.3090    -0.2200 os         1 Q15      -0.348100
     18 C27         -4.1720    -0.8650    -0.3420 c3         1 Q15       0.168600
     19 C24         -5.2220     0.2730    -0.2000 c6         1 Q15      -0.064700
     20 C23         -5.1620     0.9660     1.1920 c6         1 Q15      -0.071900
     21 C22         -6.2540     2.0570     1.3230 c6         1 Q15       0.160300
     22 N21         -7.6030     1.5050     1.0560 n7         1 Q15      -0.862400
     23 C26         -7.7100     0.8770    -0.2820 c6         1 Q15       0.160300
     24 C25         -6.6620    -0.2500    -0.4580 c6         1 Q15      -0.071900
     25 H1           6.8020    -0.6800     2.5870 hn         1 Q15       0.470000
     26 H2           7.8720     0.6250     2.2300 hn         1 Q15       0.470000
     27 H3           7.1880     2.3400     0.5390 ha         1 Q15       0.119000
     28 H4           6.2570     2.7640    -2.5280 hc         1 Q15       0.047367
     29 H5           4.6780     3.3980    -2.0340 hc         1 Q15       0.047367
     30 H6           6.1370     3.8910    -1.1660 hc         1 Q15       0.047367
     31 H7           3.7240     1.0500    -1.6940 ha         1 Q15       0.139000
     32 H8           3.3170    -1.6600    -1.1210 h1         1 Q15       0.056200
     33 H9           3.2640    -1.9240     0.6350 h1         1 Q15       0.056200
     34 H10         -0.4360     0.6200     0.0000 ha         1 Q15       0.138000
     35 H11         -2.7110    -3.0050    -0.6220 ha         1 Q15       0.118000
     36 H12         -0.6140    -4.3000    -0.7470 ha         1 Q15       0.109000
     37 H13          1.5700    -3.1780    -0.5040 ha         1 Q15       0.121000
     38 H14         -4.2970    -1.3420    -1.3230 h1         1 Q15       0.036200
     39 H15         -4.3510    -1.6180     0.4370 h1         1 Q15       0.036200
     40 H16         -4.9810     1.0160    -0.9740 hc         1 Q15       0.057700
     41 H17         -5.2940     0.2210     1.9880 hc         1 Q15       0.050450
     42 H18         -4.1750     1.4220     1.3510 hc         1 Q15       0.050450
     43 H19         -6.2260     2.4860     2.3360 h1         1 Q15       0.029450
     44 H20         -6.0450     2.8710     0.6120 h1         1 Q15       0.029450
     45 H21         -8.2910     2.2670     1.1200 hn         1 Q15       0.410000
     46 H23         -8.7210     0.4640    -0.4130 h1         1 Q15       0.029450
     47 H24         -7.5590     1.6420    -1.0580 h1         1 Q15       0.029450
     48 H25         -6.7380    -0.6640    -1.4730 hc         1 Q15       0.050450
     49 H26         -6.8920    -1.0730     0.2330 hc         1 Q15       0.050450
@<TRIPOS>BOND
     1     1     2 1   
     2     1    25 1   
     3     1    26 1   
     4     2     3 ar  
     5     2     6 ar  
     6     3     4 ar  
     7     3    27 1   
     8     4     5 1   
     9     4     8 ar  
    10     5    28 1   
    11     5    29 1   
    12     5    30 1   
    13     6     7 ar  
    14     7     8 ar  
    15     7     9 1   
    16     8    31 1   
    17     9    10 1   
    18     9    32 1   
    19     9    33 1   
    20    10    11 1   
    21    11    12 ar  
    22    11    16 ar  
    23    12    13 ar  
    24    12    34 1   
    25    13    14 ar  
    26    13    17 1   
    27    14    15 ar  
    28    14    35 1   
    29    15    16 ar  
    30    15    36 1   
    31    16    37 1   
    32    17    18 1   
    33    18    19 1   
    34    18    38 1   
    35    18    39 1   
    36    19    20 1   
    37    19    24 1   
    38    19    40 1   
    39    20    21 1   
    40    20    41 1   
    41    20    42 1   
    42    21    22 1   
    43    21    43 1   
    44    21    44 1   
    45    22    23 1   
    46    22    45 1   
    47    23    24 1   
    48    23    46 1   
    49    23    47 1   
    50    24    48 1   
    51    24    49 1   
@<TRIPOS>SUBSTRUCTURE
     1 Q15         1 TEMP              0 ****  ****    0 ROOT
