@<TRIPOS>MOLECULE
Q15
   49    51     1     0     0
SMALL
abcg2


@<TRIPOS>ATOM
      1 N02          7.6480    -0.5120     0.6460 nv         1 Q15      -1.057900
      2 C02          6.4580     0.0780     0.3400 ca         1 Q15       0.604900
      3 C03          6.3860     1.4600     0.0860 ca         1 Q15      -0.229000
      4 C04          5.1590     2.0310    -0.1720 ca         1 Q15      -0.002300
      5 C07          5.0270     3.4930    -0.4670 c3         1 Q15      -0.054800
      6 N01          5.3800    -0.6950     0.3370 nb         1 Q15      -0.762000
      7 C06          4.1940    -0.1370     0.0910 ca         1 Q15       0.389300
      8 C05          4.0240     1.2070    -0.1670 ca         1 Q15      -0.189000
      9 C08          3.0600    -1.1250     0.1100 c3         1 Q15       0.111300
     10 O09          1.8370    -0.4510    -0.0670 os         1 Q15      -0.348100
     11 C11          0.6940    -1.1670    -0.0560 ca         1 Q15       0.182100
     12 C16         -0.4790    -0.4330    -0.1990 ca         1 Q15      -0.190000
     13 C15         -1.7140    -1.0740    -0.2000 ca         1 Q15       0.181100
     14 C14         -1.7800    -2.4620    -0.0590 ca         1 Q15      -0.236000
     15 C13         -0.5980    -3.1740     0.0820 ca         1 Q15      -0.036000
     16 C12          0.6420    -2.5540     0.0880 ca         1 Q15      -0.235000
     17 O28         -2.7890    -0.2770    -0.3440 os         1 Q15      -0.348100
     18 C27         -4.0830    -0.8580    -0.3120 c3         1 Q15       0.168600
     19 C24         -5.1220     0.2410    -0.4110 c6         1 Q15      -0.064700
     20 C23         -5.0450     1.2360     0.7460 c6         1 Q15      -0.071900
     21 C22         -6.1870     2.2400     0.6790 c6         1 Q15       0.160300
     22 N21         -7.4630     1.5460     0.6740 n7         1 Q15      -0.862400
     23 C26         -7.5950     0.6870    -0.4890 c6         1 Q15       0.160300
     24 C25         -6.5160    -0.3840    -0.4670 c6         1 Q15      -0.071900
     25 H1           7.6890    -1.5140     0.5530 hn         1 Q15       0.470000
     26 H2           8.4910    -0.0350     0.3730 hn         1 Q15       0.470000
     27 H3           7.2870     2.0630     0.0940 ha         1 Q15       0.119000
     28 H4           4.7400     3.6500    -1.5080 hc         1 Q15       0.047367
     29 H5           4.2490     3.9470     0.1480 hc         1 Q15       0.047367
     30 H6           5.9580     4.0280    -0.2910 hc         1 Q15       0.047367
     31 H7           3.0470     1.6250    -0.3680 ha         1 Q15       0.139000
     32 H8           3.2200    -1.8630    -0.6840 h1         1 Q15       0.056200
     33 H9           3.0770    -1.6670     1.0620 h1         1 Q15       0.056200
     34 H10         -0.4300     0.6440    -0.3060 ha         1 Q15       0.138000
     35 H11         -2.7210    -2.9930    -0.0570 ha         1 Q15       0.118000
     36 H12         -0.6460    -4.2490     0.1910 ha         1 Q15       0.109000
     37 H13          1.5350    -3.1530     0.2030 ha         1 Q15       0.121000
     38 H14         -4.2010    -1.5620    -1.1440 h1         1 Q15       0.036200
     39 H15         -4.2240    -1.4200     0.6190 h1         1 Q15       0.036200
     40 H16         -4.9620     0.7850    -1.3510 hc         1 Q15       0.057700
     41 H17         -5.0980     0.6920     1.6950 hc         1 Q15       0.050450
     42 H18         -4.0930     1.7710     0.7360 hc         1 Q15       0.050450
     43 H19         -6.1480     2.9040     1.5440 h1         1 Q15       0.029450
     44 H20         -6.0520     2.8730    -0.2150 h1         1 Q15       0.029450
     45 H21         -8.2150     2.2220     0.6810 hn         1 Q15       0.410000
     46 H23         -8.5820     0.2220    -0.4760 h1         1 Q15       0.029450
     47 H24         -7.5180     1.2470    -1.4360 h1         1 Q15       0.029450
     48 H25         -6.6110    -1.0210    -1.3500 hc         1 Q15       0.050450
     49 H26         -6.6650    -1.0260     0.4080 hc         1 Q15       0.050450
@<TRIPOS>BOND
     1     1     2 1   
     2     1    25 1   
     3     1    26 1   
     4     2     3 ar  
     5     2     6 ar  
     6     3     4 ar  
     7     3    27 1   
     8     4     5 1   
     9     4     8 ar  
    10     5    28 1   
    11     5    29 1   
    12     5    30 1   
    13     6     7 ar  
    14     7     8 ar  
    15     7     9 1   
    16     8    31 1   
    17     9    10 1   
    18     9    32 1   
    19     9    33 1   
    20    10    11 1   
    21    11    12 ar  
    22    11    16 ar  
    23    12    13 ar  
    24    12    34 1   
    25    13    14 ar  
    26    13    17 1   
    27    14    15 ar  
    28    14    35 1   
    29    15    16 ar  
    30    15    36 1   
    31    16    37 1   
    32    17    18 1   
    33    18    19 1   
    34    18    38 1   
    35    18    39 1   
    36    19    20 1   
    37    19    24 1   
    38    19    40 1   
    39    20    21 1   
    40    20    41 1   
    41    20    42 1   
    42    21    22 1   
    43    21    43 1   
    44    21    44 1   
    45    22    23 1   
    46    22    45 1   
    47    23    24 1   
    48    23    46 1   
    49    23    47 1   
    50    24    48 1   
    51    24    49 1   
@<TRIPOS>SUBSTRUCTURE
     1 Q15         1 TEMP              0 ****  ****    0 ROOT
