@<TRIPOS>MOLECULE
Q16
   53    55     1     0     0
SMALL
abcg2


@<TRIPOS>ATOM
      1 N22         -8.2200     0.8000     1.6870 nv         1 Q16      -1.055900
      2 C22         -7.2250     0.6890     0.7570 ca         1 Q16       0.600900
      3 C23         -7.3930     1.2130    -0.5370 ca         1 Q16      -0.229000
      4 C24         -6.3510     1.1250    -1.4350 ca         1 Q16      -0.004300
      5 C27         -6.4750     1.6620    -2.8280 c3         1 Q16      -0.053800
      6 C25         -5.1600     0.5140    -1.0180 ca         1 Q16      -0.190000
      7 N21         -6.0960     0.1110     1.1440 nb         1 Q16      -0.760000
      8 C26         -5.0900     0.0260     0.2710 ca         1 Q16       0.391300
      9 C12         -3.8710    -0.6690     0.8140 c3         1 Q16       0.105300
     10 O11         -2.8250    -0.6380    -0.1150 os         1 Q16      -0.453000
     11 C2           0.5180    -0.7820    -0.3200 c5         1 Q16       0.145500
     12 C5          -0.9380    -0.9690     1.4510 c5         1 Q16       0.098800
     13 N1           0.4740    -1.0530     1.1140 n7         1 Q16      -0.807400
     14 C3          -0.7110    -1.4910    -0.9080 c5         1 Q16      -0.111400
     15 C10          1.8060    -1.2320    -0.9680 c3         1 Q16       0.169600
     16 C4          -1.7440    -1.4770     0.2260 c5         1 Q16       0.138300
     17 O09          2.8890    -0.5130    -0.4340 os         1 Q16      -0.442000
     18 C08          4.1140    -0.8830    -0.9960 c3         1 Q16       0.105300
     19 C06          5.2440    -0.1180    -0.3630 ca         1 Q16       0.390300
     20 N01          6.4360    -0.3620    -0.9110 nb         1 Q16      -0.762000
     21 C02          7.5000     0.2580    -0.4180 ca         1 Q16       0.599900
     22 N02          8.7110    -0.0530    -0.9660 nv         1 Q16      -1.058900
     23 C03          7.4090     1.1650     0.6530 ca         1 Q16      -0.230000
     24 C04          6.1750     1.4160     1.2140 ca         1 Q16      -0.005300
     25 C05          5.0570     0.7510     0.6930 ca         1 Q16      -0.186000
     26 C07          6.0190     2.3810     2.3490 c3         1 Q16      -0.053800
     27 H021         8.6910    -0.4770    -1.8790 hn         1 Q16       0.467500
     28 H022         9.4660     0.5990    -0.8320 hn         1 Q16       0.467500
     29 H03          8.2990     1.6580     1.0260 ha         1 Q16       0.118000
     30 H071         5.4100     3.2350     2.0480 hc         1 Q16       0.046367
     31 H072         5.5110     1.9120     3.1930 hc         1 Q16       0.046367
     32 H073         6.9790     2.7570     2.6960 hc         1 Q16       0.046367
     33 H05          4.0750     0.9210     1.1110 ha         1 Q16       0.145000
     34 H081         4.3000    -1.9600    -0.8650 h1         1 Q16       0.040700
     35 H082         4.1300    -0.6990    -2.0800 h1         1 Q16       0.040700
     36 H101         1.9380    -2.3140    -0.8080 h1         1 Q16       0.022200
     37 H102         1.7350    -1.0810    -2.0540 h1         1 Q16       0.022200
     38 H2           0.4090     0.3000    -0.4620 h1         1 Q16       0.087700
     39 H1           0.7910    -2.0050     1.2730 hn         1 Q16       0.399000
     40 H3'1        -1.0920    -1.0160    -1.8120 hc         1 Q16       0.060200
     41 H3'2        -0.4540    -2.5220    -1.1660 hc         1 Q16       0.060200
     42 H5'1        -1.1490    -1.5200     2.3670 h1         1 Q16       0.063700
     43 H5'2        -1.2010     0.0800     1.6300 h1         1 Q16       0.063700
     44 H4          -2.1240    -2.4900     0.4160 h1         1 Q16       0.037700
     45 H121        -3.5910    -0.1920     1.7630 h1         1 Q16       0.044200
     46 H122        -4.1450    -1.7060     1.0630 h1         1 Q16       0.044200
     47 H25         -4.3250     0.4240    -1.6980 ha         1 Q16       0.138000
     48 H271        -5.7100     2.4150    -3.0230 hc         1 Q16       0.046700
     49 H272        -6.3340     0.8680    -3.5630 hc         1 Q16       0.046700
     50 H273        -7.4500     2.1150    -3.0010 hc         1 Q16       0.046700
     51 H23         -8.3320     1.6740    -0.8190 ha         1 Q16       0.119000
     52 H221        -9.1580     0.9330     1.3490 hn         1 Q16       0.468000
     53 H222        -8.1530     0.1880     2.4830 hn         1 Q16       0.468000
@<TRIPOS>BOND
     1     1     2 1   
     2     1    52 1   
     3     1    53 1   
     4     2     3 ar  
     5     2     7 ar  
     6     3     4 ar  
     7     3    51 1   
     8     4     5 1   
     9     4     6 ar  
    10     5    48 1   
    11     5    49 1   
    12     5    50 1   
    13     6     8 ar  
    14     6    47 1   
    15     7     8 ar  
    16     8     9 1   
    17     9    10 1   
    18     9    45 1   
    19     9    46 1   
    20    10    16 1   
    21    11    13 1   
    22    11    14 1   
    23    11    15 1   
    24    11    38 1   
    25    12    13 1   
    26    12    16 1   
    27    12    42 1   
    28    12    43 1   
    29    13    39 1   
    30    14    16 1   
    31    14    40 1   
    32    14    41 1   
    33    15    17 1   
    34    15    36 1   
    35    15    37 1   
    36    16    44 1   
    37    17    18 1   
    38    18    19 1   
    39    18    34 1   
    40    18    35 1   
    41    19    20 ar  
    42    19    25 ar  
    43    20    21 ar  
    44    21    22 1   
    45    21    23 ar  
    46    22    27 1   
    47    22    28 1   
    48    23    24 ar  
    49    23    29 1   
    50    24    25 ar  
    51    24    26 1   
    52    25    33 1   
    53    26    30 1   
    54    26    31 1   
    55    26    32 1   
@<TRIPOS>SUBSTRUCTURE
     1 Q16         1 TEMP              0 ****  ****    0 ROOT
