@<TRIPOS>MOLECULE
Q16
   53    55     1     0     0
SMALL
No Charge or Current Charge


@<TRIPOS>ATOM
      1 N22         -5.9100     3.1730     1.1480 nv         1 Q16      -1.055900
      2 C22         -5.6690     2.1870     0.2830 ca         1 Q16       0.600900
      3 C23         -6.0960     2.2030    -1.0460 ca         1 Q16      -0.229000
      4 C24         -5.7930     1.1000    -1.8580 ca         1 Q16      -0.004300
      5 C27         -6.2210     1.0490    -3.3150 c3         1 Q16      -0.053800
      6 C25         -5.0710     0.0470    -1.2720 ca         1 Q16      -0.190000
      7 N21         -4.9940     1.2030     0.8570 nb         1 Q16      -0.760000
      8 C26         -4.6860     0.1320     0.0820 ca         1 Q16       0.391300
      9 C12         -3.9080    -1.0130     0.7420 c3         1 Q16       0.105300
     10 O11         -2.7290    -1.3370    -0.0330 os         1 Q16      -0.453000
     11 C2           0.3120    -1.6580    -0.1160 c5         1 Q16       0.145500
     12 C5          -1.1060    -1.9640     1.7200 c5         1 Q16       0.098800
     13 N1           0.3350    -1.9660     1.3390 n7         1 Q16      -0.807400
     14 C3          -0.7800    -2.6390    -0.6120 c5         1 Q16      -0.111400
     15 C10          1.6820    -1.8370    -0.8330 c3         1 Q16       0.169600
     16 C4          -1.8980    -2.4250     0.4430 c5         1 Q16       0.138300
     17 O09          2.6040    -0.8450    -0.3410 os         1 Q16      -0.442000
     18 C08          3.9270    -0.9170    -0.9180 c3         1 Q16       0.105300
     19 C06          4.8330     0.1660    -0.3180 ca         1 Q16       0.390300
     20 N01          5.4760     0.9890    -1.1850 nb         1 Q16      -0.762000
     21 C02          6.2640     1.9150    -0.6610 ca         1 Q16       0.599900
     22 N02          6.8250     2.6610    -1.6140 nv         1 Q16      -1.058900
     23 C03          6.4820     2.1120     0.7040 ca         1 Q16      -0.230000
     24 C04          5.8290     1.2650     1.6120 ca         1 Q16      -0.005300
     25 C05          4.9890     0.2730     1.0800 ca         1 Q16      -0.186000
     26 C07          6.0180     1.4180     3.1120 c3         1 Q16      -0.053800
     27 H021         6.4010     2.5660    -2.5290 hn         1 Q16       0.467500
     28 H022         7.1500     3.5860    -1.3580 hn         1 Q16       0.467500
     29 H03          7.1440     2.9000     1.0490 ha         1 Q16       0.118000
     30 H071         5.2500     2.0760     3.5360 hc         1 Q16       0.046367
     31 H072         5.9510     0.4500     3.6230 hc         1 Q16       0.046367
     32 H073         6.9980     1.8490     3.3500 hc         1 Q16       0.046367
     33 H05          4.4530    -0.4090     1.7340 ha         1 Q16       0.145000
     34 H081         4.3780    -1.8970    -0.7180 h1         1 Q16       0.040700
     35 H082         3.8740    -0.7910    -2.0070 h1         1 Q16       0.040700
     36 H101         2.0630    -2.8500    -0.6480 h1         1 Q16       0.022200
     37 H102         1.5360    -1.7180    -1.9150 h1         1 Q16       0.022200
     38 H2          -0.0140    -0.6200    -0.2830 h1         1 Q16       0.087700
     39 H1           0.7070    -2.9170     1.4520 hn         1 Q16       0.399000
     40 H3'1        -1.1120    -2.4180    -1.6330 hc         1 Q16       0.060200
     41 H3'2        -0.4240    -3.6750    -0.6030 hc         1 Q16       0.060200
     42 H5'1        -1.2910    -2.6280     2.5760 h1         1 Q16       0.063700
     43 H5'2        -1.4080    -0.9510     2.0220 h1         1 Q16       0.063700
     44 H4          -2.5100    -3.3240     0.6010 h1         1 Q16       0.037700
     45 H121        -3.6340    -0.7250     1.7650 h1         1 Q16       0.044200
     46 H122        -4.5690    -1.8870     0.8110 h1         1 Q16       0.044200
     47 H25         -4.8040    -0.8320    -1.8530 ha         1 Q16       0.138000
     48 H271        -5.4340     1.4470    -3.9670 hc         1 Q16       0.046700
     49 H272        -6.4310     0.0200    -3.6330 hc         1 Q16       0.046700
     50 H273        -7.1290     1.6390    -3.4860 hc         1 Q16       0.046700
     51 H23         -6.6480     3.0520    -1.4380 ha         1 Q16       0.119000
     52 H221        -6.6850     3.7930     0.9440 hn         1 Q16       0.468000
     53 H222        -5.7570     2.9390     2.1210 hn         1 Q16       0.468000
@<TRIPOS>BOND
     1     1     2 1   
     2     1    52 1   
     3     1    53 1   
     4     2     3 ar  
     5     2     7 ar  
     6     3     4 ar  
     7     3    51 1   
     8     4     5 1   
     9     4     6 ar  
    10     5    48 1   
    11     5    49 1   
    12     5    50 1   
    13     6     8 ar  
    14     6    47 1   
    15     7     8 ar  
    16     8     9 1   
    17     9    10 1   
    18     9    45 1   
    19     9    46 1   
    20    10    16 1   
    21    11    13 1   
    22    11    14 1   
    23    11    15 1   
    24    11    38 1   
    25    12    13 1   
    26    12    16 1   
    27    12    42 1   
    28    12    43 1   
    29    13    39 1   
    30    14    16 1   
    31    14    40 1   
    32    14    41 1   
    33    15    17 1   
    34    15    36 1   
    35    15    37 1   
    36    16    44 1   
    37    17    18 1   
    38    18    19 1   
    39    18    34 1   
    40    18    35 1   
    41    19    20 ar  
    42    19    25 ar  
    43    20    21 ar  
    44    21    22 1   
    45    21    23 ar  
    46    22    27 1   
    47    22    28 1   
    48    23    24 ar  
    49    23    29 1   
    50    24    25 ar  
    51    24    26 1   
    52    25    33 1   
    53    26    30 1   
    54    26    31 1   
    55    26    32 1   
@<TRIPOS>SUBSTRUCTURE
     1 Q16         1 TEMP              0 ****  ****    0 ROOT
