@<TRIPOS>MOLECULE
Q17
   40    42     1     0     0
SMALL
No Charge or Current Charge


@<TRIPOS>ATOM
      1 C1          -4.3290    -2.2210    -0.3020 ca         1 Q17      -0.227000
      2 C2          -3.9250    -3.4040     0.3340 ca         1 Q17      -0.053000
      3 C3          -2.6430    -3.4870     0.8900 ca         1 Q17      -0.166000
      4 C4          -1.7690    -2.3900     0.8160 ca         1 Q17      -0.035000
      5 C5          -2.1540    -1.1740     0.1860 cp         1 Q17      -0.176500
      6 C6          -3.4630    -1.1170    -0.3820 ca         1 Q17       0.182100
      7 O7          -3.9100    -0.0180    -1.0520 oh         1 Q17      -0.503100
      8 C8          -1.1800    -0.0240     0.1420 cp         1 Q17       0.252500
      9 N9           0.1280    -0.3380     0.0620 nb         1 Q17      -0.300000
     10 C10          1.0180     0.6670     0.0490 ca         1 Q17       0.409900
     11 C11          0.6070     2.0180     0.1170 ca         1 Q17      -0.181000
     12 C12         -0.7850     2.2640     0.2010 ca         1 Q17       0.059000
     13 N13         -1.6580     1.2370     0.2140 nb         1 Q17      -0.192000
     14 C14         -1.2470     3.5920     0.2730 ca         1 Q17      -0.097000
     15 C15         -0.3430     4.6670     0.2610 ca         1 Q17      -0.085000
     16 C16          1.0360     4.4210     0.1780 ca         1 Q17      -0.129000
     17 C17          1.5150     3.1030     0.1060 ca         1 Q17      -0.072000
     18 N18          2.3600     0.2980    -0.0350 nu         1 Q17      -0.929100
     19 C19          2.9060    -1.0670    -0.1170 c3         1 Q17       0.231800
     20 C20          4.4430    -1.0310    -0.1920 c3         1 Q17      -0.101400
     21 C21          5.0580    -2.4410    -0.2780 c3         1 Q17       0.153800
     22 N22          6.5290    -2.3840    -0.3570 n8         1 Q17      -0.996200
     23 H1          -5.3230    -2.1720    -0.7400 ha         1 Q17       0.111000
     24 H2          -4.6020    -4.2540     0.3920 ha         1 Q17       0.111000
     25 H3          -2.3230    -4.4020     1.3830 ha         1 Q17       0.116000
     26 H4          -0.7830    -2.4830     1.2670 ha         1 Q17       0.128000
     27 HO7         -4.8210    -0.2000    -1.3630 ho         1 Q17       0.459000
     28 H14         -2.3140     3.7890     0.3370 ha         1 Q17       0.135000
     29 H15         -0.7120     5.6890     0.3160 ha         1 Q17       0.115000
     30 H16          1.7360     5.2540     0.1690 ha         1 Q17       0.114000
     31 H17          2.5880     2.9410     0.0420 ha         1 Q17       0.102000
     32 HN18         3.0270     1.0670    -0.0470 hn         1 Q17       0.497000
     33 H19          2.6000    -1.6490     0.7650 h1         1 Q17       0.055700
     34 H19A         2.5120    -1.5770    -1.0090 h1         1 Q17       0.055700
     35 H20          4.7480    -0.4500    -1.0710 hc         1 Q17       0.051200
     36 H20A         4.8360    -0.5180     0.6950 hc         1 Q17       0.051200
     37 H21          4.7730    -3.0250     0.6080 h1         1 Q17       0.031700
     38 H21A         4.6770    -2.9560    -1.1710 h1         1 Q17       0.031700
     39 HN22         6.8960    -1.9810     0.5140 hn         1 Q17       0.394000
     40 HN2A         6.9020    -3.3410    -0.3540 hn         1 Q17       0.394000
@<TRIPOS>BOND
     1     1     2 ar  
     2     1     6 ar  
     3     1    23 1   
     4     2     3 ar  
     5     2    24 1   
     6     3     4 ar  
     7     3    25 1   
     8     4     5 ar  
     9     4    26 1   
    10     5     6 ar  
    11     5     8 1   
    12     6     7 1   
    13     7    27 1   
    14     8     9 ar  
    15     8    13 ar  
    16     9    10 ar  
    17    10    11 ar  
    18    10    18 1   
    19    11    12 ar  
    20    11    17 ar  
    21    12    13 ar  
    22    12    14 ar  
    23    14    15 ar  
    24    14    28 1   
    25    15    16 ar  
    26    15    29 1   
    27    16    17 ar  
    28    16    30 1   
    29    17    31 1   
    30    18    19 1   
    31    18    32 1   
    32    19    20 1   
    33    19    33 1   
    34    19    34 1   
    35    20    21 1   
    36    20    35 1   
    37    20    36 1   
    38    21    22 1   
    39    21    37 1   
    40    21    38 1   
    41    22    39 1   
    42    22    40 1   
@<TRIPOS>SUBSTRUCTURE
     1 Q17         1 TEMP              0 ****  ****    0 ROOT
