@<TRIPOS>MOLECULE
Q17
   40    42     1     0     0
SMALL
bcc


@<TRIPOS>ATOM
      1 C1          -4.1440    -2.2660    -0.3210 ca         1 Q17      -0.245000
      2 C2          -3.7020    -3.4040     0.3310 ca         1 Q17      -0.071000
      3 C3          -2.4340    -3.4330     0.8980 ca         1 Q17      -0.184000
      4 C4          -1.6270    -2.3130     0.7980 ca         1 Q17      -0.053000
      5 C5          -2.0570    -1.1440     0.1660 cp         1 Q17      -0.176500
      6 C6          -3.3370    -1.1310    -0.4090 ca         1 Q17       0.182100
      7 O7          -3.7570    -0.0390    -1.0700 oh         1 Q17      -0.464100
      8 C8          -1.1380     0.0180     0.1290 cp         1 Q17       0.778500
      9 N9           0.1670    -0.2970     0.0380 nb         1 Q17      -0.826000
     10 C10          1.0540     0.6780     0.0400 ca         1 Q17       0.738200
     11 C11          0.6330     2.0560     0.1140 ca         1 Q17      -0.311600
     12 C12         -0.7590     2.2530     0.2120 ca         1 Q17       0.452600
     13 N13         -1.6410     1.2190     0.2280 nb         1 Q17      -0.718000
     14 C14         -1.2540     3.5700     0.3020 ca         1 Q17      -0.180300
     15 C15         -0.3940     4.6390     0.2880 ca         1 Q17      -0.103000
     16 C16          0.9920     4.4380     0.1830 ca         1 Q17      -0.147000
     17 C17          1.4970     3.1630     0.0970 ca         1 Q17      -0.090000
     18 N18          2.3460     0.3490    -0.0320 nu         1 Q17      -0.873900
     19 C19          2.8140    -1.0210    -0.0790 c3         1 Q17       0.231800
     20 C20          4.3280    -1.0580    -0.1940 c3         1 Q17      -0.101400
     21 C21          4.8530    -2.4850    -0.2460 c3         1 Q17       0.153800
     22 N22          6.3030    -2.4940    -0.3560 n8         1 Q17      -0.885800
     23 H1          -5.1280    -2.2560    -0.7770 ha         1 Q17       0.129000
     24 H2          -4.3500    -4.2680     0.3890 ha         1 Q17       0.129000
     25 H3          -2.0780    -4.3170     1.4080 ha         1 Q17       0.134000
     26 H4          -0.6330    -2.3280     1.2250 ha         1 Q17       0.146000
     27 HO7         -4.6260    -0.2080    -1.4530 ho         1 Q17       0.420000
     28 H14         -2.3240     3.7130     0.3810 ha         1 Q17       0.153000
     29 H15         -0.7840     5.6460     0.3580 ha         1 Q17       0.133000
     30 H16          1.6630     5.2860     0.1690 ha         1 Q17       0.132000
     31 H17          2.5690     3.0360     0.0160 ha         1 Q17       0.120000
     32 HN18         3.0410     1.0750    -0.0050 hn         1 Q17       0.441800
     33 H19          2.4890    -1.5550     0.8190 h1         1 Q17       0.055700
     34 H19A         2.3580    -1.5350    -0.9300 h1         1 Q17       0.055700
     35 H20          4.6480    -0.5260    -1.0940 hc         1 Q17       0.051200
     36 H20A         4.7720    -0.5390     0.6620 hc         1 Q17       0.051200
     37 H21          4.4740    -3.0370     0.6260 h1         1 Q17       0.031700
     38 H21A         4.4410    -2.9840    -1.1270 h1         1 Q17       0.031700
     39 HN22         6.7070    -2.1510     0.5080 hn         1 Q17       0.338800
     40 HN2A         6.6270    -3.4480    -0.4460 hn         1 Q17       0.338800
@<TRIPOS>BOND
     1     1     2 ar  
     2     1     6 ar  
     3     1    23 1   
     4     2     3 ar  
     5     2    24 1   
     6     3     4 ar  
     7     3    25 1   
     8     4     5 ar  
     9     4    26 1   
    10     5     6 ar  
    11     5     8 1   
    12     6     7 1   
    13     7    27 1   
    14     8     9 ar  
    15     8    13 ar  
    16     9    10 ar  
    17    10    11 ar  
    18    10    18 1   
    19    11    12 ar  
    20    11    17 ar  
    21    12    13 ar  
    22    12    14 ar  
    23    14    15 ar  
    24    14    28 1   
    25    15    16 ar  
    26    15    29 1   
    27    16    17 ar  
    28    16    30 1   
    29    17    31 1   
    30    18    19 1   
    31    18    32 1   
    32    19    20 1   
    33    19    33 1   
    34    19    34 1   
    35    20    21 1   
    36    20    35 1   
    37    20    36 1   
    38    21    22 1   
    39    21    37 1   
    40    21    38 1   
    41    22    39 1   
    42    22    40 1   
@<TRIPOS>SUBSTRUCTURE
     1 Q17         1 TEMP              0 ****  ****    0 ROOT
