@<TRIPOS>MOLECULE
Q18
   53    57     1     0     0
SMALL
No Charge or Current Charge


@<TRIPOS>ATOM
      1 C1          -5.6090    -3.6330     0.4360 c3         1 Q18      -0.069900
      2 C2          -4.9360    -3.1630    -0.8720 c3         1 Q18      -0.077400
      3 C3          -3.4140    -2.9180    -0.8010 c3         1 Q18       0.171800
      4 N4          -3.0750    -1.7010    -0.0230 n3         1 Q18      -0.758600
      5 C5          -2.8590    -1.9380     1.4340 c3         1 Q18       0.171800
      6 C6          -3.8980    -2.8070     2.1800 c3         1 Q18      -0.077400
      7 C7          -5.3540    -2.7350     1.6670 c3         1 Q18      -0.069900
      8 C8          -1.9570    -0.9230    -0.6220 c3         1 Q18       0.230100
      9 C9          -1.9150     0.5230    -0.1350 ca         1 Q18      -0.250300
     10 C10         -0.6910     1.1860     0.0330 ca         1 Q18       0.196100
     11 C11         -0.6520     2.5070     0.4300 ca         1 Q18      -0.311600
     12 C12         -1.8050     3.2590     0.6820 ca         1 Q18       0.042000
     13 C13         -3.0440     2.6110     0.5160 ca         1 Q18      -0.217000
     14 C14         -3.0920     1.2620     0.1130 ca         1 Q18       0.241100
     15 O15          0.5520     0.6160    -0.1820 os         1 Q18      -0.223200
     16 C16          1.4400     1.6440     0.1060 cc         1 Q18      -0.092100
     17 C17          0.7500     2.8890     0.5050 c          1 Q18       0.596900
     18 C18          2.8000     1.5160     0.0240 cf         1 Q18      -0.052000
     19 C19          3.6120     0.3560    -0.3620 cd         1 Q18      -0.134200
     20 C20          5.0540     0.3750    -0.4880 ca         1 Q18      -0.075800
     21 C21          5.4190    -0.8910    -0.8550 ca         1 Q18      -0.059200
     22 N22          4.2870    -1.6800    -0.9600 na         1 Q18      -0.213700
     23 C23          3.1380    -0.9200    -0.6550 cc         1 Q18      -0.106100
     24 C24          6.0000     1.3950    -0.3050 ca         1 Q18      -0.065000
     25 C25          7.3590     1.0740    -0.5140 ca         1 Q18      -0.131000
     26 C26          7.7370    -0.2380    -0.8930 ca         1 Q18      -0.094000
     27 C27          6.7580    -1.2400    -1.0690 ca         1 Q18      -0.121000
     28 O28          1.2130     3.9780     0.8210 o          1 Q18      -0.519100
     29 O29         -4.2880     0.6410    -0.0160 oh         1 Q18      -0.565100
     30 H1          -6.6910    -3.6900     0.2640 hc         1 Q18       0.042200
     31 H1A         -5.2810    -4.6560     0.6610 hc         1 Q18       0.042200
     32 H2          -5.1270    -3.9170    -1.6440 hc         1 Q18       0.044200
     33 H2A         -5.4240    -2.2430    -1.2150 hc         1 Q18       0.044200
     34 H3          -2.9070    -3.8030    -0.3950 h1         1 Q18       0.039950
     35 H3A         -3.0690    -2.8070    -1.8390 h1         1 Q18       0.039950
     36 H5          -1.8720    -2.3940     1.5940 h1         1 Q18       0.039950
     37 H5A         -2.8300    -0.9660     1.9440 h1         1 Q18       0.039950
     38 H6          -3.5650    -3.8510     2.1590 hc         1 Q18       0.044200
     39 H6A         -3.8820    -2.5130     3.2370 hc         1 Q18       0.044200
     40 H7          -5.6310    -1.6970     1.4490 hc         1 Q18       0.042200
     41 H7A         -6.0170    -3.0720     2.4730 hc         1 Q18       0.042200
     42 H8          -1.0000    -1.4200    -0.4140 h1         1 Q18       0.048700
     43 H8A         -2.0650    -0.8880    -1.7150 h1         1 Q18       0.048700
     44 H12         -1.7480     4.3010     0.9940 ha         1 Q18       0.131000
     45 H13         -3.9670     3.1520     0.7050 ha         1 Q18       0.134000
     46 H18          3.3540     2.4220     0.2750 ha         1 Q18       0.205000
     47 HN22         4.2880    -2.6620    -1.2190 hn         1 Q18       0.351000
     48 H23          2.1330    -1.3290    -0.6690 h4         1 Q18       0.224000
     49 H24          5.7040     2.4000    -0.0150 ha         1 Q18       0.119000
     50 H25          8.1210     1.8390    -0.3820 ha         1 Q18       0.113000
     51 H26          8.7870    -0.4740    -1.0510 ha         1 Q18       0.112000
     52 H27          7.0380    -2.2500    -1.3600 ha         1 Q18       0.114000
     53 HO29        -4.0300    -0.3270    -0.0650 ho         1 Q18       0.527000
@<TRIPOS>BOND
     1     1     2 1   
     2     1     7 1   
     3     1    30 1   
     4     1    31 1   
     5     2     3 1   
     6     2    32 1   
     7     2    33 1   
     8     3     4 1   
     9     3    34 1   
    10     3    35 1   
    11     4     5 1   
    12     4     8 1   
    13     5     6 1   
    14     5    36 1   
    15     5    37 1   
    16     6     7 1   
    17     6    38 1   
    18     6    39 1   
    19     7    40 1   
    20     7    41 1   
    21     8     9 1   
    22     8    42 1   
    23     8    43 1   
    24     9    10 ar  
    25     9    14 ar  
    26    10    11 ar  
    27    10    15 1   
    28    11    12 ar  
    29    11    17 1   
    30    12    13 ar  
    31    12    44 1   
    32    13    14 ar  
    33    13    45 1   
    34    14    29 1   
    35    15    16 1   
    36    16    17 1   
    37    16    18 2   
    38    17    28 2   
    39    18    19 1   
    40    18    46 1   
    41    19    20 1   
    42    19    23 2   
    43    20    21 ar  
    44    20    24 ar  
    45    21    22 1   
    46    21    27 ar  
    47    22    23 1   
    48    22    47 1   
    49    23    48 1   
    50    24    25 ar  
    51    24    49 1   
    52    25    26 ar  
    53    25    50 1   
    54    26    27 ar  
    55    26    51 1   
    56    27    52 1   
    57    29    53 1   
@<TRIPOS>SUBSTRUCTURE
     1 Q18         1 TEMP              0 ****  ****    0 ROOT
