@<TRIPOS>MOLECULE
Q18
   53    57     1     0     0
SMALL
bcc


@<TRIPOS>ATOM
      1 C1          -5.4500    -3.5810     0.4670 c3         1 Q18      -0.069900
      2 C2          -4.8100    -3.1190    -0.8360 c3         1 Q18      -0.077400
      3 C3          -3.3050    -2.8790    -0.7910 c3         1 Q18       0.171800
      4 N4          -2.9630    -1.6770    -0.0230 n3         1 Q18      -0.758600
      5 C5          -2.6730    -1.9190     1.3920 c3         1 Q18       0.171800
      6 C6          -3.6330    -2.8720     2.0940 c3         1 Q18      -0.077400
      7 C7          -5.1050    -2.7500     1.7000 c3         1 Q18      -0.069900
      8 C8          -1.8890    -0.8920    -0.6320 c3         1 Q18       0.230100
      9 C9          -1.8950     0.5320    -0.1420 ca         1 Q18      -0.250300
     10 C10         -0.7450     1.2740     0.0250 ca         1 Q18       0.196100
     11 C11         -0.7290     2.6140     0.3970 ca         1 Q18      -0.311600
     12 C12         -1.9320     3.2790     0.6240 ca         1 Q18       0.024000
     13 C13         -3.1090     2.5800     0.4790 ca         1 Q18      -0.235000
     14 C14         -3.0970     1.2220     0.1010 ca         1 Q18       0.241100
     15 O15          0.5040     0.7820    -0.1690 os         1 Q18      -0.223200
     16 C16          1.3970     1.7990     0.0830 cc         1 Q18      -0.092100
     17 C17          0.6620     3.0240     0.4560 c          1 Q18       0.596900
     18 C18          2.7240     1.6350    -0.0130 cf         1 Q18      -0.002000
     19 C19          3.4560     0.4600    -0.3710 cd         1 Q18      -0.134200
     20 C20          4.8930     0.3690    -0.4440 ca         1 Q18      -0.075800
     21 C21          5.2030    -0.9490    -0.8290 ca         1 Q18      -0.059200
     22 N22          4.0160    -1.6170    -0.9800 na         1 Q18      -0.163400
     23 C23          2.9810    -0.7950    -0.7120 cc         1 Q18      -0.056100
     24 C24          5.9340     1.2740    -0.2210 ca         1 Q18      -0.083000
     25 C25          7.2370     0.8430    -0.3860 ca         1 Q18      -0.149000
     26 C26          7.5220    -0.4760    -0.7710 ca         1 Q18      -0.112000
     27 C27          6.5120    -1.3910    -0.9980 ca         1 Q18      -0.139000
     28 O28          1.1470     4.1070     0.7390 o          1 Q18      -0.519100
     29 O29         -4.2630     0.5940    -0.0190 oh         1 Q18      -0.526100
     30 H1          -6.5350    -3.5990     0.3310 hc         1 Q18       0.042200
     31 H1A         -5.1520    -4.6170     0.6630 hc         1 Q18       0.042200
     32 H2          -5.0100    -3.8690    -1.6070 hc         1 Q18       0.044200
     33 H2A         -5.2880    -2.1970    -1.1790 hc         1 Q18       0.044200
     34 H3          -2.7720    -3.7610    -0.4140 h1         1 Q18       0.039950
     35 H3A         -2.9590    -2.7340    -1.8150 h1         1 Q18       0.039950
     36 H5          -1.6490    -2.3030     1.5070 h1         1 Q18       0.039950
     37 H5A         -2.6960    -0.9540     1.9060 h1         1 Q18       0.039950
     38 H6          -3.3160    -3.9060     1.9330 hc         1 Q18       0.044200
     39 H6A         -3.5150    -2.6950     3.1650 hc         1 Q18       0.044200
     40 H7          -5.3850    -1.7010     1.5540 hc         1 Q18       0.042200
     41 H7A         -5.7170    -3.1070     2.5320 hc         1 Q18       0.042200
     42 H8          -0.9090    -1.3530    -0.4540 h1         1 Q18       0.048700
     43 H8A         -2.0420    -0.8890    -1.7140 h1         1 Q18       0.048700
     44 H12         -1.9420     4.3230     0.9110 ha         1 Q18       0.149000
     45 H13         -4.0620     3.0600     0.6560 ha         1 Q18       0.152000
     46 H18          3.3020     2.5230     0.2170 ha         1 Q18       0.155000
     47 HN22         3.9200    -2.5830    -1.2490 hn         1 Q18       0.300700
     48 H23          1.9700    -1.1590    -0.7830 h4         1 Q18       0.174000
     49 H24          5.7310     2.2970     0.0740 ha         1 Q18       0.137000
     50 H25          8.0530     1.5330    -0.2170 ha         1 Q18       0.131000
     51 H26          8.5530    -0.7820    -0.8920 ha         1 Q18       0.130000
     52 H27          6.7310    -2.4090    -1.2940 ha         1 Q18       0.132000
     53 HO29        -4.0520    -0.3890    -0.0820 ho         1 Q18       0.488000
@<TRIPOS>BOND
     1     1     2 1   
     2     1     7 1   
     3     1    30 1   
     4     1    31 1   
     5     2     3 1   
     6     2    32 1   
     7     2    33 1   
     8     3     4 1   
     9     3    34 1   
    10     3    35 1   
    11     4     5 1   
    12     4     8 1   
    13     5     6 1   
    14     5    36 1   
    15     5    37 1   
    16     6     7 1   
    17     6    38 1   
    18     6    39 1   
    19     7    40 1   
    20     7    41 1   
    21     8     9 1   
    22     8    42 1   
    23     8    43 1   
    24     9    10 ar  
    25     9    14 ar  
    26    10    11 ar  
    27    10    15 1   
    28    11    12 ar  
    29    11    17 1   
    30    12    13 ar  
    31    12    44 1   
    32    13    14 ar  
    33    13    45 1   
    34    14    29 1   
    35    15    16 1   
    36    16    17 1   
    37    16    18 2   
    38    17    28 2   
    39    18    19 1   
    40    18    46 1   
    41    19    20 1   
    42    19    23 2   
    43    20    21 ar  
    44    20    24 ar  
    45    21    22 1   
    46    21    27 ar  
    47    22    23 1   
    48    22    47 1   
    49    23    48 1   
    50    24    25 ar  
    51    24    49 1   
    52    25    26 ar  
    53    25    50 1   
    54    26    27 ar  
    55    26    51 1   
    56    27    52 1   
    57    29    53 1   
@<TRIPOS>SUBSTRUCTURE
     1 Q18         1 TEMP              0 ****  ****    0 ROOT
