@<TRIPOS>MOLECULE
Q19
   38    40     1     0     0
SMALL
No Charge or Current Charge


@<TRIPOS>ATOM
      1 C1          -4.0810     0.5210     0.3140 ca         1 Q19       0.443900
      2 N2          -4.7600    -0.5860    -0.0000 nb         1 Q19      -0.345000
      3 C3          -4.0250    -1.5950    -0.4700 ca         1 Q19       0.419900
      4 N4          -2.7000    -1.6300    -0.6560 nb         1 Q19      -0.289000
      5 C5          -2.0090    -0.5150    -0.3400 ca         1 Q19       0.101000
      6 C6          -2.6810     0.6210     0.1630 ca         1 Q19      -0.218000
      7 C7          -0.6160    -0.4640    -0.5090 ca         1 Q19      -0.105000
      8 C8           0.1340     0.6930    -0.1950 cp         1 Q19       0.001000
      9 C9          -0.5520     1.8280     0.3210 ca         1 Q19      -0.100300
     10 C10         -1.9510     1.7850     0.4900 ca         1 Q19      -0.057000
     11 N11         -4.8620     1.5230     0.7960 nv         1 Q19      -1.082900
     12 N12         -4.7040    -2.7190    -0.7870 nv         1 Q19      -1.053900
     13 C13          0.1820     3.1030     0.7310 c3         1 Q19      -0.040800
     14 C14          1.6130     0.6790    -0.4110 cp         1 Q19      -0.053000
     15 C15          2.2440     1.6430    -1.2290 ca         1 Q19      -0.070000
     16 C16          3.6310     1.6130    -1.4330 ca         1 Q19      -0.128000
     17 C17          4.4150     0.6160    -0.8290 ca         1 Q19      -0.071000
     18 C18          3.8140    -0.3710    -0.0120 ca         1 Q19      -0.179600
     19 C19          2.4140    -0.3260     0.1820 ca         1 Q19      -0.044000
     20 C20          4.6290    -1.4650     0.6520 c          1 Q19       0.583700
     21 O21          4.0900    -2.3120     1.3540 o          1 Q19      -0.522100
     22 C22          6.1450    -1.5140     0.4460 c3         1 Q19      -0.195100
     23 H7          -0.1020    -1.3370    -0.9040 ha         1 Q19       0.136000
     24 H10         -2.4600     2.6630     0.8780 ha         1 Q19       0.099000
     25 HN11        -5.8140     1.2850     1.0620 hn         1 Q19       0.500000
     26 HN1A        -4.4230     2.2710     1.3230 hn         1 Q19       0.500000
     27 HN12        -5.6570    -2.8130    -0.4470 hn         1 Q19       0.487500
     28 HN1B        -4.1780    -3.5780    -0.9220 hn         1 Q19       0.487500
     29 H13          0.3470     3.7570    -0.1330 hc         1 Q19       0.040700
     30 H13A        -0.3870     3.6750     1.4730 hc         1 Q19       0.040700
     31 H13B         1.1570     2.8800     1.1800 hc         1 Q19       0.040700
     32 H15          1.6490     2.4130    -1.7160 ha         1 Q19       0.119000
     33 H16          4.1020     2.3630    -2.0650 ha         1 Q19       0.117000
     34 H17          5.4870     0.6240    -1.0100 ha         1 Q19       0.113000
     35 H19          1.9290    -1.0720     0.8090 ha         1 Q19       0.140000
     36 H22          6.5780    -0.5530     0.7440 hc         1 Q19       0.061367
     37 H22A         6.6160    -2.3480     0.9780 hc         1 Q19       0.061367
     38 H22B         6.3590    -1.5530    -0.6280 hc         1 Q19       0.061367
@<TRIPOS>BOND
     1     1     2 ar  
     2     1     6 ar  
     3     1    11 1   
     4     2     3 ar  
     5     3     4 ar  
     6     3    12 1   
     7     4     5 ar  
     8     5     6 ar  
     9     5     7 ar  
    10     6    10 ar  
    11     7     8 ar  
    12     7    23 1   
    13     8     9 ar  
    14     8    14 1   
    15     9    10 ar  
    16     9    13 1   
    17    10    24 1   
    18    11    25 1   
    19    11    26 1   
    20    12    27 1   
    21    12    28 1   
    22    13    29 1   
    23    13    30 1   
    24    13    31 1   
    25    14    15 ar  
    26    14    19 ar  
    27    15    16 ar  
    28    15    32 1   
    29    16    17 ar  
    30    16    33 1   
    31    17    18 ar  
    32    17    34 1   
    33    18    19 ar  
    34    18    20 1   
    35    19    35 1   
    36    20    21 2   
    37    20    22 1   
    38    22    36 1   
    39    22    37 1   
    40    22    38 1   
@<TRIPOS>SUBSTRUCTURE
     1 Q19         1 TEMP              0 ****  ****    0 ROOT
