@<TRIPOS>MOLECULE
Q19
   38    40     1     0     0
SMALL
bcc


@<TRIPOS>ATOM
      1 C1          -4.0590     0.4880     0.3730 ca         1 Q19       0.772200
      2 N2          -4.6810    -0.6190     0.0300 nb         1 Q19      -0.871000
      3 C3          -3.9440    -1.6290    -0.4770 ca         1 Q19       0.945900
      4 N4          -2.6430    -1.6380    -0.6720 nb         1 Q19      -0.815000
      5 C5          -1.9850    -0.5060    -0.3290 ca         1 Q19       0.494600
      6 C6          -2.6340     0.6210     0.2080 ca         1 Q19      -0.348600
      7 C7          -0.5900    -0.4350    -0.5110 ca         1 Q19      -0.188300
      8 C8           0.1280     0.6930    -0.1840 cp         1 Q19       0.001000
      9 C9          -0.5260     1.8260     0.3660 ca         1 Q19      -0.100300
     10 C10         -1.8890     1.7600     0.5500 ca         1 Q19      -0.075000
     11 N11         -4.7940     1.4820     0.8780 nv         1 Q19      -0.972500
     12 N12         -4.6470    -2.7250    -0.8470 nv         1 Q19      -0.943500
     13 C13          0.2310     3.0550     0.7810 c3         1 Q19      -0.040800
     14 C14          1.5940     0.6830    -0.4050 cp         1 Q19      -0.053000
     15 C15          2.2050     1.6110    -1.2510 ca         1 Q19      -0.088000
     16 C16          3.5710     1.5660    -1.4760 ca         1 Q19      -0.146000
     17 C17          4.3490     0.5980    -0.8600 ca         1 Q19      -0.089000
     18 C18          3.7590    -0.3390    -0.0140 ca         1 Q19      -0.179600
     19 C19          2.3820    -0.2860     0.2020 ca         1 Q19      -0.062000
     20 C20          4.5560    -1.3990     0.6670 c          1 Q19       0.583700
     21 O21          4.0140    -2.1990     1.4010 o          1 Q19      -0.522100
     22 C22          6.0380    -1.4470     0.4160 c3         1 Q19      -0.195100
     23 H7          -0.0870    -1.2970    -0.9330 ha         1 Q19       0.154000
     24 H10         -2.3800     2.6230     0.9830 ha         1 Q19       0.117000
     25 HN11        -5.7870     1.3590     0.9840 hn         1 Q19       0.444800
     26 HN1A        -4.4020     2.3560     1.1750 hn         1 Q19       0.444800
     27 HN12        -5.5800    -2.8330    -0.4860 hn         1 Q19       0.432300
     28 HN1B        -4.1360    -3.5740    -1.0170 hn         1 Q19       0.432300
     29 H13          0.5890     3.6300    -0.0740 hc         1 Q19       0.040700
     30 H13A        -0.4040     3.7160     1.3690 hc         1 Q19       0.040700
     31 H13B         1.1050     2.8080     1.3850 hc         1 Q19       0.040700
     32 H15          1.6060     2.3620    -1.7500 ha         1 Q19       0.137000
     33 H16          4.0320     2.2860    -2.1400 ha         1 Q19       0.135000
     34 H17          5.4140     0.5820    -1.0500 ha         1 Q19       0.131000
     35 H19          1.9170    -1.0080     0.8620 ha         1 Q19       0.158000
     36 H22          6.5150    -0.5130     0.7160 hc         1 Q19       0.061367
     37 H22A         6.4880    -2.2650     0.9740 hc         1 Q19       0.061367
     38 H22B         6.2480    -1.5880    -0.6450 hc         1 Q19       0.061367
@<TRIPOS>BOND
     1     1     2 ar  
     2     1     6 ar  
     3     1    11 1   
     4     2     3 ar  
     5     3     4 ar  
     6     3    12 1   
     7     4     5 ar  
     8     5     6 ar  
     9     5     7 ar  
    10     6    10 ar  
    11     7     8 ar  
    12     7    23 1   
    13     8     9 ar  
    14     8    14 1   
    15     9    10 ar  
    16     9    13 1   
    17    10    24 1   
    18    11    25 1   
    19    11    26 1   
    20    12    27 1   
    21    12    28 1   
    22    13    29 1   
    23    13    30 1   
    24    13    31 1   
    25    14    15 ar  
    26    14    19 ar  
    27    15    16 ar  
    28    15    32 1   
    29    16    17 ar  
    30    16    33 1   
    31    17    18 ar  
    32    17    34 1   
    33    18    19 ar  
    34    18    20 1   
    35    19    35 1   
    36    20    21 2   
    37    20    22 1   
    38    22    36 1   
    39    22    37 1   
    40    22    38 1   
@<TRIPOS>SUBSTRUCTURE
     1 Q19         1 TEMP              0 ****  ****    0 ROOT
