@<TRIPOS>MOLECULE
Q1A
   53    56     1     0     0
SMALL
abcg2


@<TRIPOS>ATOM
      1 N1          23.6970    63.5720    48.1970 nc         1 Q1A      -0.438300
      2 C10         27.2990    61.1400    53.5420 ca         1 Q1A      -0.149000
      3 C13         29.9340    61.6470    52.8820 ca         1 Q1A      -0.070000
      4 C15         30.7240    60.7700    55.1000 cp         1 Q1A      -0.036000
      5 C17         31.6350    61.0630    57.3360 ca         1 Q1A      -0.126000
      6 C20         34.0260    58.9820    55.3340 ca         1 Q1A       0.613900
      7 C21         33.0990    58.5450    53.2750 ca         1 Q1A       0.377900
      8 C22         31.9870    59.3030    53.5080 ca         1 Q1A      -0.207000
      9 C01         24.6110    65.1240    44.3960 c3         1 Q1A      -0.084767
     10 C02         25.1020    65.8160    45.6810 c3         1 Q1A      -0.091300
     11 C03         26.5850    66.1770    45.5400 c3         1 Q1A      -0.084767
     12 C04         24.2780    67.0950    45.9290 c3         1 Q1A      -0.084767
     13 C05         24.9230    64.8880    46.8470 cc         1 Q1A       0.212300
     14 C06         25.7710    64.4090    47.7950 cd         1 Q1A      -0.244000
     15 C07         24.9450    63.5890    48.6160 cd         1 Q1A       0.424900
     16 N01         25.2640    62.8430    49.7300 ns         1 Q1A      -0.497400
     17 C08         26.5050    62.7980    50.3420 c          1 Q1A       0.676100
     18 O01         27.4730    63.4140    49.9200 o          1 Q1A      -0.596100
     19 N02         26.5150    61.9950    51.4520 ns         1 Q1A      -0.158000
     20 C09         27.5950    61.7240    52.3060 ca         1 Q1A      -0.009000
     21 C11         28.3120    60.8200    54.4320 ca         1 Q1A      -0.070000
     22 C12         29.6520    61.0670    54.1210 cp         1 Q1A      -0.060000
     23 C14         28.9310    61.9740    51.9800 ca         1 Q1A      -0.149000
     24 C16         30.6340    61.2860    56.3780 ca         1 Q1A      -0.078000
     25 C18         32.7490    60.3280    57.0110 ca         1 Q1A      -0.074000
     26 C19         32.8820    59.7710    55.7220 ca         1 Q1A      -0.126000
     27 N03         35.0540    58.7720    56.2130 nv         1 Q1A      -1.058900
     28 N04         34.1200    58.3950    54.1540 nb         1 Q1A      -0.761000
     29 C1          31.8530    59.9650    54.7570 ca         1 Q1A       0.034000
     30 O1          23.6830    64.4030    47.0650 os         1 Q1A      -0.086700
     31 H1          26.2670    60.9350    53.8030 ha         1 Q1A       0.130500
     32 H2          30.9610    61.8610    52.6160 ha         1 Q1A       0.121000
     33 H3          31.5310    61.4830    58.3280 ha         1 Q1A       0.117000
     34 H4          33.2150    58.0200    52.3340 h4         1 Q1A       0.017100
     35 H5          31.2180    59.3810    52.7560 ha         1 Q1A       0.130000
     36 H6          25.1780    64.2110    44.2040 hc         1 Q1A       0.044367
     37 H7          23.5540    64.8650    44.4660 hc         1 Q1A       0.044367
     38 H8          24.7440    65.7980    43.5480 hc         1 Q1A       0.044367
     39 H9          26.9550    66.6860    46.4310 hc         1 Q1A       0.044367
     40 H10         27.1930    65.2870    45.3710 hc         1 Q1A       0.044367
     41 H11         26.7140    66.8460    44.6880 hc         1 Q1A       0.044367
     42 H12         24.6120    67.5990    46.8380 hc         1 Q1A       0.044367
     43 H13         24.4070    67.7790    45.0880 hc         1 Q1A       0.044367
     44 H14         23.2170    66.8660    46.0290 hc         1 Q1A       0.044367
     45 H15         26.8190    64.5950    47.9080 ha         1 Q1A       0.176000
     46 H16         24.4980    62.3150    50.1250 hn         1 Q1A       0.333500
     47 H17         25.6320    61.6120    51.7560 hn         1 Q1A       0.151000
     48 H18         28.0580    60.3660    55.3810 ha         1 Q1A       0.121000
     49 H19         29.1810    62.4260    51.0350 ha         1 Q1A       0.130500
     50 H20         29.7770    61.8950    56.6390 ha         1 Q1A       0.116000
     51 H21         33.5100    60.1690    57.7620 ha         1 Q1A       0.110000
     52 H22         35.8870    58.3700    55.8090 hn         1 Q1A       0.474500
     53 H23         35.2240    59.4490    56.9380 hn         1 Q1A       0.474500
@<TRIPOS>BOND
     1     1    15 2   
     2     1    30 1   
     3     2    20 ar  
     4     2    21 ar  
     5     2    31 1   
     6     3    22 ar  
     7     3    23 ar  
     8     3    32 1   
     9     4    22 1   
    10     4    24 ar  
    11     4    29 ar  
    12     5    24 ar  
    13     5    25 ar  
    14     5    33 1   
    15     6    26 ar  
    16     6    27 1   
    17     6    28 ar  
    18     7     8 ar  
    19     7    28 ar  
    20     7    34 1   
    21     8    29 ar  
    22     8    35 1   
    23     9    10 1   
    24     9    36 1   
    25     9    37 1   
    26     9    38 1   
    27    10    11 1   
    28    10    12 1   
    29    10    13 1   
    30    11    39 1   
    31    11    40 1   
    32    11    41 1   
    33    12    42 1   
    34    12    43 1   
    35    12    44 1   
    36    13    14 2   
    37    13    30 1   
    38    14    15 1   
    39    14    45 1   
    40    15    16 1   
    41    16    17 1   
    42    16    46 1   
    43    17    18 2   
    44    17    19 1   
    45    19    20 1   
    46    19    47 1   
    47    20    23 ar  
    48    21    22 ar  
    49    21    48 1   
    50    23    49 1   
    51    24    50 1   
    52    25    26 ar  
    53    25    51 1   
    54    26    29 ar  
    55    27    52 1   
    56    27    53 1   
@<TRIPOS>SUBSTRUCTURE
     1 Q1A         1 TEMP              0 ****  ****    0 ROOT
