@<TRIPOS>MOLECULE
Q1A
   53    56     1     0     0
SMALL
No Charge or Current Charge


@<TRIPOS>ATOM
      1 N1          23.5670    63.7880    48.3980 nc         1 Q1A      -0.438300
      2 C10         27.3460    61.1250    53.5040 ca         1 Q1A      -0.149000
      3 C13         29.9990    61.9330    53.1180 ca         1 Q1A      -0.070000
      4 C15         30.7420    60.6900    55.1980 cp         1 Q1A      -0.036000
      5 C17         31.5510    60.6870    57.5170 ca         1 Q1A      -0.126000
      6 C20         34.0200    58.9030    55.3350 ca         1 Q1A       0.613900
      7 C21         33.2990    58.8240    53.1760 ca         1 Q1A       0.377900
      8 C22         32.1320    59.5350    53.4920 ca         1 Q1A      -0.207000
      9 C01         24.5360    64.9120    44.3310 c3         1 Q1A      -0.084767
     10 C02         25.0230    65.7260    45.5580 c3         1 Q1A      -0.091300
     11 C03         26.5310    66.0480    45.3780 c3         1 Q1A      -0.084767
     12 C04         24.2330    67.0580    45.6400 c3         1 Q1A      -0.084767
     13 C05         24.7920    64.9200    46.8250 cc         1 Q1A       0.212300
     14 C06         25.6420    64.4560    47.7820 cd         1 Q1A      -0.244000
     15 C07         24.8440    63.7730    48.7170 cd         1 Q1A       0.424900
     16 N01         25.2920    63.1450    49.8500 ns         1 Q1A      -0.497400
     17 C08         26.5690    63.0250    50.3420 c          1 Q1A       0.676100
     18 O01         27.5520    63.4970    49.7930 o          1 Q1A      -0.596100
     19 N02         26.5990    62.3030    51.5260 ns         1 Q1A      -0.158000
     20 C09         27.6630    61.9330    52.3960 ca         1 Q1A      -0.009000
     21 C11         28.3430    60.7200    54.4070 ca         1 Q1A      -0.070000
     22 C12         29.6900    61.1070    54.2230 cp         1 Q1A      -0.060000
     23 C14         29.0020    62.3390    52.2120 ca         1 Q1A      -0.149000
     24 C16         30.5830    61.0320    56.5620 ca         1 Q1A      -0.078000
     25 C18         32.7040    59.9880    57.1290 ca         1 Q1A      -0.074000
     26 C19         32.8860    59.6210    55.7780 ca         1 Q1A      -0.126000
     27 N03         35.0500    58.5200    56.1010 nv         1 Q1A      -1.058900
     28 N04         34.2440    58.5130    54.0880 nb         1 Q1A      -0.761000
     29 C1          31.9070    59.9630    54.8180 ca         1 Q1A       0.034000
     30 O1          23.5150    64.5340    47.1630 os         1 Q1A      -0.086700
     31 H1          26.3190    60.8050    53.6690 ha         1 Q1A       0.130500
     32 H2          31.0240    62.2650    52.9670 ha         1 Q1A       0.121000
     33 H3          31.4100    60.9650    58.5590 ha         1 Q1A       0.117000
     34 H4          33.4830    58.4900    52.1550 h4         1 Q1A       0.017100
     35 H5          31.4150    59.7310    52.7020 ha         1 Q1A       0.130000
     36 H6          25.0720    63.9560    44.2600 hc         1 Q1A       0.044367
     37 H7          23.4640    64.6920    44.4020 hc         1 Q1A       0.044367
     38 H8          24.7050    65.4650    43.3990 hc         1 Q1A       0.044367
     39 H9          26.9120    66.6330    46.2250 hc         1 Q1A       0.044367
     40 H10         27.1240    65.1280    45.3060 hc         1 Q1A       0.044367
     41 H11         26.7030    66.6300    44.4640 hc         1 Q1A       0.044367
     42 H12         24.5510    67.6460    46.5100 hc         1 Q1A       0.044367
     43 H13         24.3940    67.6670    44.7420 hc         1 Q1A       0.044367
     44 H14         23.1560    66.8730    45.7330 hc         1 Q1A       0.044367
     45 H15         26.7120    64.5960    47.7990 ha         1 Q1A       0.176000
     46 H16         24.5860    62.6990    50.4170 hn         1 Q1A       0.333500
     47 H17         25.6950    61.9750    51.8370 hn         1 Q1A       0.151000
     48 H18         28.0750    60.0940    55.2560 ha         1 Q1A       0.121000
     49 H19         29.2950    62.9730    51.3820 ha         1 Q1A       0.130500
     50 H20         29.7000    61.5850    56.8770 ha         1 Q1A       0.116000
     51 H21         33.4400    59.7270    57.8860 ha         1 Q1A       0.110000
     52 H22         35.8590    58.2130    55.5750 hn         1 Q1A       0.474500
     53 H23         35.2390    59.0610    56.9360 hn         1 Q1A       0.474500
@<TRIPOS>BOND
     1     1    15 2   
     2     1    30 1   
     3     2    20 ar  
     4     2    21 ar  
     5     2    31 1   
     6     3    22 ar  
     7     3    23 ar  
     8     3    32 1   
     9     4    22 1   
    10     4    24 ar  
    11     4    29 ar  
    12     5    24 ar  
    13     5    25 ar  
    14     5    33 1   
    15     6    26 ar  
    16     6    27 1   
    17     6    28 ar  
    18     7     8 ar  
    19     7    28 ar  
    20     7    34 1   
    21     8    29 ar  
    22     8    35 1   
    23     9    10 1   
    24     9    36 1   
    25     9    37 1   
    26     9    38 1   
    27    10    11 1   
    28    10    12 1   
    29    10    13 1   
    30    11    39 1   
    31    11    40 1   
    32    11    41 1   
    33    12    42 1   
    34    12    43 1   
    35    12    44 1   
    36    13    14 2   
    37    13    30 1   
    38    14    15 1   
    39    14    45 1   
    40    15    16 1   
    41    16    17 1   
    42    16    46 1   
    43    17    18 2   
    44    17    19 1   
    45    19    20 1   
    46    19    47 1   
    47    20    23 ar  
    48    21    22 ar  
    49    21    48 1   
    50    23    49 1   
    51    24    50 1   
    52    25    26 ar  
    53    25    51 1   
    54    26    29 ar  
    55    27    52 1   
    56    27    53 1   
@<TRIPOS>SUBSTRUCTURE
     1 Q1A         1 TEMP              0 ****  ****    0 ROOT
