@<TRIPOS>MOLECULE
Q1B
   21    22     1     0     0
SMALL
No Charge or Current Charge


@<TRIPOS>ATOM
      1 C1          18.7660    13.8560    69.5270 ca         1 Q1B       0.054100
      2 C2          18.3010    14.9860    70.2620 ca         1 Q1B      -0.062000
      3 C3          16.9180    15.1940    70.4550 ca         1 Q1B      -0.140000
      4 C4          16.0370    14.2600    69.9040 ca         1 Q1B      -0.015000
      5 C6          15.2630    12.3480    68.7300 c5         1 Q1B      -0.119100
      6 C8          17.8360    12.9380    68.9890 ca         1 Q1B      -0.044000
      7 F1          21.1210    15.6830    69.2810 f          1 Q1B      -0.110000
      8 C5          14.0480    13.1530    69.2920 c          1 Q1B       0.567000
      9 N           14.6490    14.2150    69.9370 ns         1 Q1B      -0.149000
     10 C7          16.4670    13.1640    69.1920 ca         1 Q1B      -0.139300
     11 O           20.1080    13.5950    69.3030 os         1 Q1B      -0.397100
     12 C           21.1870    14.4270    69.7800 c3         1 Q1B       0.512000
     13 F           21.2030    14.5140    71.1310 f          1 Q1B      -0.110000
     14 F2          22.3810    13.9180    69.4060 f          1 Q1B      -0.110000
     15 H1          18.9900    15.7090    70.6880 ha         1 Q1B       0.138000
     16 H2          16.5510    16.0520    71.0130 ha         1 Q1B       0.131000
     17 H3          15.2300    11.3300    69.1300 hc         1 Q1B       0.095700
     18 H4          15.1640    12.2690    67.6420 hc         1 Q1B       0.095700
     19 H5          18.1780    12.0730    68.4270 ha         1 Q1B       0.140000
     20 H6          14.1050    14.9260    70.4100 hn         1 Q1B       0.176000
     21 O1          12.8460    12.9340    69.2070 o          1 Q1B      -0.513000
@<TRIPOS>BOND
     1     1     2 ar  
     2     1     6 ar  
     3     1    11 1   
     4     2     3 ar  
     5     2    15 1   
     6     3     4 ar  
     7     3    16 1   
     8     4     9 1   
     9     4    10 ar  
    10     5     8 1   
    11     5    10 1   
    12     5    17 1   
    13     5    18 1   
    14     6    10 ar  
    15     6    19 1   
    16     7    12 1   
    17     8     9 1   
    18     8    21 2   
    19     9    20 1   
    20    11    12 1   
    21    12    13 1   
    22    12    14 1   
@<TRIPOS>SUBSTRUCTURE
     1 Q1B         1 TEMP              0 ****  ****    0 ROOT
