@<TRIPOS>MOLECULE
Q1B
   21    22     1     0     0
SMALL
bcc


@<TRIPOS>ATOM
      1 C1          18.7580    13.8180    70.0840 ca         1 Q1B       0.054100
      2 C2          18.2160    14.7480    70.9540 ca         1 Q1B      -0.080000
      3 C3          16.8400    14.9590    70.9800 ca         1 Q1B      -0.158000
      4 C4          16.0570    14.2140    70.1200 ca         1 Q1B       0.077600
      5 C6          15.4920    12.6380    68.4830 c5         1 Q1B      -0.119100
      6 C8          17.9680    13.0620    69.2240 ca         1 Q1B      -0.062000
      7 F1          20.6180    14.1690    68.0280 f          1 Q1B      -0.231300
      8 C5          14.2520    13.3400    69.0190 c          1 Q1B       0.709500
      9 N           14.6800    14.2340    69.9590 ns         1 Q1B      -0.475100
     10 C7          16.6070    13.2700    69.2520 ca         1 Q1B      -0.139300
     11 O           20.1310    13.5780    70.1180 os         1 Q1B      -0.373900
     12 C           20.9120    14.3150    69.3220 c3         1 Q1B       0.852700
     13 F           20.8390    15.6210    69.5870 f          1 Q1B      -0.231300
     14 F2          22.1640    13.9240    69.5080 f          1 Q1B      -0.231300
     15 H1          18.8560    15.3030    71.6270 ha         1 Q1B       0.156000
     16 H2          16.4090    15.6840    71.6580 ha         1 Q1B       0.149000
     17 H3          15.4120    11.5610    68.6470 hc         1 Q1B       0.095700
     18 H4          15.5700    12.7910    67.4040 hc         1 Q1B       0.095700
     19 H5          18.4100    12.3250    68.5660 ha         1 Q1B       0.158000
     20 H6          14.0550    14.8360    70.4750 hn         1 Q1B       0.342500
     21 O1          13.1020    13.1550    68.6900 o          1 Q1B      -0.588500
@<TRIPOS>BOND
     1     1     2 ar  
     2     1     6 ar  
     3     1    11 1   
     4     2     3 ar  
     5     2    15 1   
     6     3     4 ar  
     7     3    16 1   
     8     4     9 1   
     9     4    10 ar  
    10     5     8 1   
    11     5    10 1   
    12     5    17 1   
    13     5    18 1   
    14     6    10 ar  
    15     6    19 1   
    16     7    12 1   
    17     8     9 1   
    18     8    21 2   
    19     9    20 1   
    20    11    12 1   
    21    12    13 1   
    22    12    14 1   
@<TRIPOS>SUBSTRUCTURE
     1 Q1B         1 TEMP              0 ****  ****    0 ROOT
