@<TRIPOS>MOLECULE
Q1C
   39    40     1     0     0
SMALL
abcg2


@<TRIPOS>ATOM
      1 N1           7.1310     0.2100    21.1950 ns         1 Q1C      -0.160000
      2 C4           8.6580     0.1580    23.0750 c3         1 Q1C       0.093800
      3 C5           8.3050     0.6940    21.6900 c          1 Q1C       0.596100
      4 C6           6.4830     0.5930    20.0060 ca         1 Q1C      -0.079000
      5 C7           7.1960     0.9820    18.8700 ca         1 Q1C       0.331900
      6 C8           5.2780     1.3060    17.6720 ca         1 Q1C       0.314900
      7 C10          5.0810     0.5510    19.9500 ca         1 Q1C      -0.085300
      8 C13         11.8560    -1.7000    22.4120 c6         1 Q1C      -0.071900
      9 O            9.0030     1.5120    21.1080 o          1 Q1C      -0.552100
     10 N           10.0580    -0.1990    23.1790 n3         1 Q1C      -0.699600
     11 C3          10.4570    -0.3880    24.5740 c6         1 Q1C       0.167800
     12 C2          11.9500    -0.6720    24.6820 c6         1 Q1C      -0.071900
     13 C12         10.3680    -1.3810    22.3730 c6         1 Q1C       0.167800
     14 C1          12.3550    -1.8880    23.8460 c6         1 Q1C      -0.064700
     15 C           13.8590    -2.1390    23.8980 c3         1 Q1C      -0.085100
     16 C11          4.2580     0.1360    21.1330 c3         1 Q1C      -0.050800
     17 C9           4.4890     0.9190    18.7460 ca         1 Q1C      -0.144000
     18 N2           6.6120     1.3370    17.7250 nb         1 Q1C      -0.646000
     19 H1           6.6340    -0.4360    21.7890 hn         1 Q1C       0.150000
     20 H2           8.4470     0.9670    23.7800 h1         1 Q1C       0.045700
     21 H3           7.9940    -0.6820    23.3370 h1         1 Q1C       0.045700
     22 H4           8.2760     1.0040    18.8980 h4         1 Q1C       0.046100
     23 H5           4.8200     1.5990    16.7340 h4         1 Q1C       0.021100
     24 H7          12.4100    -0.8790    21.9420 hc         1 Q1C       0.050950
     25 H9          10.2010     0.5190    25.1270 h1         1 Q1C       0.030950
     26 H10          9.8920    -1.2200    25.0330 h1         1 Q1C       0.030950
     27 H11         12.2110    -0.8290    25.7310 hc         1 Q1C       0.050950
     28 H12         12.5060     0.2050    24.3340 hc         1 Q1C       0.050950
     29 H13         10.0520    -1.1940    21.3450 h1         1 Q1C       0.030950
     30 H14          9.7930    -2.2530    22.7370 h1         1 Q1C       0.030950
     31 H15         11.8430    -2.7640    24.2630 hc         1 Q1C       0.039700
     32 H16         14.1980    -2.2910    24.9260 hc         1 Q1C       0.035033
     33 H17         14.1320    -3.0240    23.3170 hc         1 Q1C       0.035033
     34 H18         14.4060    -1.2860    23.4870 hc         1 Q1C       0.035033
     35 H19          4.4400    -0.9110    21.3940 hc         1 Q1C       0.045700
     36 H20          4.5040     0.7360    22.0130 hc         1 Q1C       0.045700
     37 H21          3.1970     0.2490    20.9200 hc         1 Q1C       0.045700
     38 H22          3.4110     0.9080    18.6500 ha         1 Q1C       0.121000
     39 H6          12.0470    -2.6000    21.8220 hc         1 Q1C       0.050950
@<TRIPOS>BOND
     1     1     3 1   
     2     1     4 1   
     3     1    19 1   
     4     2     3 1   
     5     2    10 1   
     6     2    20 1   
     7     2    21 1   
     8     3     9 2   
     9     4     5 ar  
    10     4     7 ar  
    11     5    18 ar  
    12     5    22 1   
    13     6    17 ar  
    14     6    18 ar  
    15     6    23 1   
    16     7    16 1   
    17     7    17 ar  
    18     8    13 1   
    19     8    14 1   
    20     8    24 1   
    21     8    39 1   
    22    10    11 1   
    23    10    13 1   
    24    11    12 1   
    25    11    25 1   
    26    11    26 1   
    27    12    14 1   
    28    12    27 1   
    29    12    28 1   
    30    13    29 1   
    31    13    30 1   
    32    14    15 1   
    33    14    31 1   
    34    15    32 1   
    35    15    33 1   
    36    15    34 1   
    37    16    35 1   
    38    16    36 1   
    39    16    37 1   
    40    17    38 1   
@<TRIPOS>SUBSTRUCTURE
     1 Q1C         1 TEMP              0 ****  ****    0 ROOT
