@<TRIPOS>MOLECULE
Q1C
   39    40     1     0     0
SMALL
No Charge or Current Charge


@<TRIPOS>ATOM
      1 N1           7.4110     0.9440    21.3130 ns         1 Q1C      -0.160000
      2 C4           9.0610     1.2990    23.1170 c3         1 Q1C       0.093800
      3 C5           8.4810     1.7220    21.7380 c          1 Q1C       0.596100
      4 C6           6.5990     0.9940    20.1410 ca         1 Q1C      -0.079000
      5 C7           6.6460     2.0650    19.2120 ca         1 Q1C       0.331900
      6 C8           5.0200     1.1010    17.8720 ca         1 Q1C       0.314900
      7 C10          5.6960    -0.0650    19.8930 ca         1 Q1C      -0.085300
      8 C13         11.1060    -1.9190    22.4440 c6         1 Q1C      -0.071900
      9 O            8.9430     2.6570    21.0900 o          1 Q1C      -0.552100
     10 N           10.2060     0.3290    23.1280 n3         1 Q1C      -0.699600
     11 C3          10.7810     0.1590    24.4920 c6         1 Q1C       0.167800
     12 C2          12.0420    -0.7380    24.4740 c6         1 Q1C      -0.071900
     13 C12          9.8700    -0.9880    22.5130 c6         1 Q1C       0.167800
     14 C1          11.7370    -2.1200    23.8440 c6         1 Q1C      -0.064700
     15 C           13.0010    -3.0190    23.7850 c3         1 Q1C      -0.085100
     16 C11          5.5780    -1.2580    20.8380 c3         1 Q1C      -0.050800
     17 C9           4.9000     0.0010    18.7350 ca         1 Q1C      -0.144000
     18 N2           5.8740     2.1220    18.0990 nb         1 Q1C      -0.646000
     19 H1           7.1640     0.1980    21.9500 hn         1 Q1C       0.150000
     20 H2           9.3700     2.2300    23.6110 h1         1 Q1C       0.045700
     21 H3           8.2300     0.8950    23.7110 h1         1 Q1C       0.045700
     22 H4           7.3050     2.9190    19.3530 h4         1 Q1C       0.046100
     23 H5           4.4110     1.1680    16.9710 h4         1 Q1C       0.021100
     24 H7          11.8460    -1.4870    21.7560 hc         1 Q1C       0.050950
     25 H9          11.0530     1.1380    24.9130 h1         1 Q1C       0.030950
     26 H10         10.0330    -0.2860    25.1660 h1         1 Q1C       0.030950
     27 H11         12.4170    -0.8630    25.4990 hc         1 Q1C       0.050950
     28 H12         12.8380    -0.2330    23.9090 hc         1 Q1C       0.050950
     29 H13          9.4900    -0.8510    21.4910 h1         1 Q1C       0.030950
     30 H14          9.0770    -1.4860    23.0900 h1         1 Q1C       0.030950
     31 H15         11.0120    -2.6440    24.4840 hc         1 Q1C       0.039700
     32 H16         13.4200    -3.1780    24.7850 hc         1 Q1C       0.035033
     33 H17         12.7650    -4.0040    23.3650 hc         1 Q1C       0.035033
     34 H18         13.7830    -2.5680    23.1620 hc         1 Q1C       0.035033
     35 H19          6.5390    -1.7740    20.9450 hc         1 Q1C       0.045700
     36 H20          5.2500    -0.9410    21.8350 hc         1 Q1C       0.045700
     37 H21          4.8510    -1.9940    20.4730 hc         1 Q1C       0.045700
     38 H22          4.1930    -0.7890    18.4970 ha         1 Q1C       0.121000
     39 H6          10.8110    -2.8880    22.0190 hc         1 Q1C       0.050950
@<TRIPOS>BOND
     1     1     3 1   
     2     1     4 1   
     3     1    19 1   
     4     2     3 1   
     5     2    10 1   
     6     2    20 1   
     7     2    21 1   
     8     3     9 2   
     9     4     5 ar  
    10     4     7 ar  
    11     5    18 ar  
    12     5    22 1   
    13     6    17 ar  
    14     6    18 ar  
    15     6    23 1   
    16     7    16 1   
    17     7    17 ar  
    18     8    13 1   
    19     8    14 1   
    20     8    24 1   
    21     8    39 1   
    22    10    11 1   
    23    10    13 1   
    24    11    12 1   
    25    11    25 1   
    26    11    26 1   
    27    12    14 1   
    28    12    27 1   
    29    12    28 1   
    30    13    29 1   
    31    13    30 1   
    32    14    15 1   
    33    14    31 1   
    34    15    32 1   
    35    15    33 1   
    36    15    34 1   
    37    16    35 1   
    38    16    36 1   
    39    16    37 1   
    40    17    38 1   
@<TRIPOS>SUBSTRUCTURE
     1 Q1C         1 TEMP              0 ****  ****    0 ROOT
