@<TRIPOS>MOLECULE
Q1E
   43    45     1     0     0
SMALL
bcc


@<TRIPOS>ATOM
      1 C4          13.7050    16.4540    19.1000 cc         1 Q1E      -0.018000
      2 C5          15.7170    12.1620    18.1200 c6         1 Q1E       0.208800
      3 C6          15.8060    10.8180    18.8190 c6         1 Q1E       0.186800
      4 C7          13.4300    10.8860    19.2750 c6         1 Q1E       0.186800
      5 C8          13.3390    12.2290    18.5790 c6         1 Q1E       0.208800
      6 C12         14.5400     4.7960    24.1700 c3         1 Q1E       0.094300
      7 C3          13.6360    15.1080    19.1690 cd         1 Q1E      -0.256300
      8 C1          14.7930    17.0180    18.3900 cc         1 Q1E      -0.123300
      9 C2          14.6460    14.2960    18.5260 cd         1 Q1E       0.637200
     10 O2          15.6900     7.0440    23.0030 o          1 Q1E      -0.601100
     11 C11         14.9450     6.3460    22.3310 c          1 Q1E       0.668100
     12 N6          14.3340     5.2590    22.8180 ns         1 Q1E      -0.574900
     13 C10         14.6710     6.6380    20.8660 c3         1 Q1E      -0.131400
     14 C9          14.7130     8.1330    20.5990 c3         1 Q1E      -0.219600
     15 O           13.1860     8.0270    18.4520 o          1 Q1E      -0.597300
     16 O1          15.6730     7.9650    18.1480 o          1 Q1E      -0.597300
     17 N5          14.5300    10.1240    18.6910 n3         1 Q1E      -0.727500
     18 N4          14.6100    12.9350    18.6560 nh         1 Q1E      -0.763300
     19 N           15.1650    18.2550    18.1390 nd         1 Q1E      -0.067000
     20 N3          15.6440    14.8130    17.8630 nc         1 Q1E      -0.552800
     21 N2          15.6900    16.1500    17.8410 na         1 Q1E       0.097300
     22 C           16.6170    16.9300    17.2450 cc         1 Q1E       0.356700
     23 N1          16.3010    18.1870    17.4240 nd         1 Q1E      -0.370700
     24 H1          12.9790    17.0930    19.5820 ha         1 Q1E       0.171000
     25 H2          16.6490    12.6960    18.2870 h1         1 Q1E       0.063700
     26 H3          15.6080    12.0130    17.0390 h1         1 Q1E       0.063700
     27 H4          16.5970    10.2390    18.3490 h1         1 Q1E       0.066700
     28 H5          16.0690    10.9680    19.8730 h1         1 Q1E       0.066700
     29 H6          12.4890    10.3580    19.1330 h1         1 Q1E       0.066700
     30 H7          13.5820    11.0390    20.3510 h1         1 Q1E       0.066700
     31 H8          12.5470    12.7990    19.0580 h1         1 Q1E       0.063700
     32 H9          13.0510    12.0800    17.5320 h1         1 Q1E       0.063700
     33 H10         13.9270     3.9130    24.3280 h1         1 Q1E       0.042033
     34 H11         15.5810     4.5290    24.3520 h1         1 Q1E       0.042033
     35 H12         14.2480     5.5510    24.9010 h1         1 Q1E       0.042033
     36 H13         12.8450    14.6420    19.7370 ha         1 Q1E       0.154000
     37 H14         13.7190     4.7310    22.2220 hn         1 Q1E       0.317500
     38 H15         13.7090     6.2210    20.5640 hc         1 Q1E       0.074700
     39 H16         15.4390     6.1280    20.2780 hc         1 Q1E       0.074700
     40 H17         15.6660     8.5690    20.9010 h1         1 Q1E       0.104200
     41 H18         13.9130     8.6560    21.1280 h1         1 Q1E       0.104200
     42 H19         17.4700    16.5440    16.7100 h5         1 Q1E       0.086800
     43 S           14.5090     8.4800    18.8540 s6         1 Q1E       1.218900
@<TRIPOS>BOND
     1     1     7 2   
     2     1     8 1   
     3     1    24 1   
     4     2     3 1   
     5     2    18 1   
     6     2    25 1   
     7     2    26 1   
     8     3    17 1   
     9     3    27 1   
    10     3    28 1   
    11     4     5 1   
    12     4    17 1   
    13     4    29 1   
    14     4    30 1   
    15     5    18 1   
    16     5    31 1   
    17     5    32 1   
    18     6    12 1   
    19     6    33 1   
    20     6    34 1   
    21     6    35 1   
    22     7     9 1   
    23     7    36 1   
    24     8    19 2   
    25     8    21 1   
    26     9    18 1   
    27     9    20 2   
    28    10    11 2   
    29    11    12 1   
    30    11    13 1   
    31    12    37 1   
    32    13    14 1   
    33    13    38 1   
    34    13    39 1   
    35    14    40 1   
    36    14    41 1   
    37    14    43 1   
    38    15    43 2   
    39    16    43 2   
    40    17    43 1   
    41    19    23 1   
    42    20    21 1   
    43    21    22 1   
    44    22    23 2   
    45    22    42 1   
@<TRIPOS>SUBSTRUCTURE
     1 Q1E         1 TEMP              0 ****  ****    0 ROOT
