@<TRIPOS>MOLECULE
Q1E
   43    45     1     0     0
SMALL
No Charge or Current Charge


@<TRIPOS>ATOM
      1 C4          13.7660    16.1800    19.7550 cc         1 Q1E       0.000000
      2 C5          15.8200    12.0530    17.9890 c6         1 Q1E       0.208800
      3 C6          15.8600    10.5660    18.4570 c6         1 Q1E       0.186800
      4 C7          13.4370    10.5870    18.8370 c6         1 Q1E       0.186800
      5 C8          13.3570    12.0710    18.3660 c6         1 Q1E       0.208800
      6 C12         14.1870     5.8240    24.4800 c3         1 Q1E       0.094300
      7 C3          13.7500    14.8120    19.6360 cd         1 Q1E      -0.173000
      8 C1          14.6920    16.8790    18.9400 cc         1 Q1E      -0.174000
      9 C2          14.6630    14.1920    18.7000 cd         1 Q1E       0.571900
     10 O2          16.3260     6.5990    22.7500 o          1 Q1E      -0.601100
     11 C11         15.2250     6.3860    22.2620 c          1 Q1E       0.601100
     12 N6          14.1470     6.0020    23.0260 ns         1 Q1E      -0.507900
     13 C10         14.9540     6.4980    20.7550 c3         1 Q1E      -0.131400
     14 C9          14.8930     7.9820    20.2740 c3         1 Q1E      -0.330400
     15 O           13.2680     7.6520    18.1750 o          1 Q1E      -0.526500
     16 O1          15.7620     7.6290    17.7670 o          1 Q1E      -0.526500
     17 N5          14.5740     9.8510    18.2090 n3         1 Q1E      -0.727500
     18 N4          14.6510    12.7990    18.5650 nh         1 Q1E      -0.763300
     19 N           14.9500    18.1690    18.8230 nd         1 Q1E      -0.067000
     20 N3          15.5540    14.8250    17.9230 nc         1 Q1E      -0.552800
     21 N2          15.5130    16.1990    18.0960 na         1 Q1E       0.148000
     22 C           16.3040    17.1020    17.4350 cc         1 Q1E       0.356700
     23 N1          15.9620    18.3120    17.8770 nd         1 Q1E      -0.370700
     24 H1          13.1120    16.7130    20.4390 ha         1 Q1E       0.153000
     25 H2          16.7680    12.5280    18.2800 h1         1 Q1E       0.063700
     26 H3          15.7700    12.0750    16.8900 h1         1 Q1E       0.063700
     27 H4          16.6900    10.0710    17.9330 h1         1 Q1E       0.066700
     28 H5          16.1060    10.5540    19.5290 h1         1 Q1E       0.066700
     29 H6          12.4790    10.1040    18.5940 h1         1 Q1E       0.066700
     30 H7          13.5310    10.5790    19.9320 h1         1 Q1E       0.066700
     31 H8          12.5290    12.5600    18.8980 h1         1 Q1E       0.063700
     32 H9          13.0930    12.0810    17.2980 h1         1 Q1E       0.063700
     33 H10         13.1960     5.5200    24.8400 h1         1 Q1E       0.042033
     34 H11         14.9190     5.0480    24.7380 h1         1 Q1E       0.042033
     35 H12         14.4720     6.7690    24.9600 h1         1 Q1E       0.042033
     36 H13         13.0800    14.2170    20.2420 ha         1 Q1E       0.136000
     37 H14         13.2720     5.8420    22.5400 hn         1 Q1E       0.317500
     38 H15         14.0000     6.0110    20.5140 hc         1 Q1E       0.074700
     39 H16         15.7690     5.9900    20.2240 hc         1 Q1E       0.074700
     40 H17         15.8410     8.4890    20.4840 h1         1 Q1E       0.104200
     41 H18         14.0760     8.5130    20.7740 h1         1 Q1E       0.104200
     42 H19         17.0520    16.8370    16.7000 h5         1 Q1E       0.086800
     43 S           14.6060     8.1540    18.5000 s6         1 Q1E       1.188100
@<TRIPOS>BOND
     1     1     7 2   
     2     1     8 1   
     3     1    24 1   
     4     2     3 1   
     5     2    18 1   
     6     2    25 1   
     7     2    26 1   
     8     3    17 1   
     9     3    27 1   
    10     3    28 1   
    11     4     5 1   
    12     4    17 1   
    13     4    29 1   
    14     4    30 1   
    15     5    18 1   
    16     5    31 1   
    17     5    32 1   
    18     6    12 1   
    19     6    33 1   
    20     6    34 1   
    21     6    35 1   
    22     7     9 1   
    23     7    36 1   
    24     8    19 2   
    25     8    21 1   
    26     9    18 1   
    27     9    20 2   
    28    10    11 2   
    29    11    12 1   
    30    11    13 1   
    31    12    37 1   
    32    13    14 1   
    33    13    38 1   
    34    13    39 1   
    35    14    40 1   
    36    14    41 1   
    37    14    43 1   
    38    15    43 2   
    39    16    43 2   
    40    17    43 1   
    41    19    23 1   
    42    20    21 1   
    43    21    22 1   
    44    22    23 2   
    45    22    42 1   
@<TRIPOS>SUBSTRUCTURE
     1 Q1E         1 TEMP              0 ****  ****    0 ROOT
