@<TRIPOS>MOLECULE
Q1F
   87    91     1     0     0
SMALL
No Charge or Current Charge


@<TRIPOS>ATOM
      1 C11         26.2900     6.0940    24.3000 c5         1 Q1F       0.072300
      2 O20         32.6940     5.0470    28.2210 o          1 Q1F      -0.840500
      3 N26         30.5750     6.8200    32.3330 na         1 Q1F      -0.287300
      4 C01         26.8100     2.8090    31.1190 c3         1 Q1F      -0.100100
      5 C02         27.0680     4.2710    30.6800 c3         1 Q1F       0.159000
      6 C03         26.9830     4.3690    29.1560 ca         1 Q1F       0.016700
      7 C04         25.7400     4.3620    28.5030 ca         1 Q1F      -0.111500
      8 C05         25.6760     4.4590    27.1010 ca         1 Q1F      -0.056500
      9 C07         26.7030     4.6750    24.8330 c5         1 Q1F       0.282300
     10 C09         28.3740     5.4370    23.3290 c5         1 Q1F       0.151300
     11 C10         27.0420     6.1490    22.9380 c5         1 Q1F       0.112300
     12 C14         29.3800     6.3430    24.0970 c3         1 Q1F       0.218600
     13 C22         30.4360     8.1120    28.8540 c3         1 Q1F       0.229600
     14 C23         30.9120     9.0160    30.0390 c5         1 Q1F       0.147300
     15 C25         30.7930     8.2710    32.2750 c5         1 Q1F       0.281300
     16 C27         31.3770     5.8230    31.7590 cc         1 Q1F       0.481700
     17 C29         29.9300     4.8490    33.0240 ca         1 Q1F      -0.087600
     18 C30         29.6480     6.1880    33.1150 ca         1 Q1F       0.108500
     19 C32         27.9290     5.7220    34.5540 ca         1 Q1F       0.147900
     20 C34         29.1430     3.9490    33.7720 ca         1 Q1F       0.434900
     21 C36         32.2470     8.8250    32.1010 c5         1 Q1F       0.079300
     22 C37         32.3940     8.8520    30.5460 c5         1 Q1F       0.157300
     23 C42         28.0540     4.5610    26.9740 ca         1 Q1F      -0.005800
     24 C43         28.1470     4.4750    28.3750 ca         1 Q1F      -0.111500
     25 C47         26.1350     9.0360    31.9390 c3         1 Q1F       0.053000
     26 C48         25.3360     9.7930    30.8500 c3         1 Q1F       0.269000
     27 F49         25.6830     9.3900    29.6060 f          1 Q1F      -0.121667
     28 F50         24.0060     9.5920    30.9980 f          1 Q1F      -0.121667
     29 F51         25.5660    11.1230    30.9330 f          1 Q1F      -0.121667
     30 N06         26.8210     4.5590    26.2980 na         1 Q1F       0.023300
     31 N28         31.0090     4.5930    32.1750 nd         1 Q1F      -0.582100
     32 N31         28.6460     6.6580    33.8860 nb         1 Q1F      -0.223000
     33 N33         28.1310     4.3820    34.5390 nb         1 Q1F      -0.324000
     34 N35         29.3630     2.6070    33.7760 nv         1 Q1F      -1.081900
     35 N44         26.2390     5.3110    31.3640 n          1 Q1F      -0.437800
     36 N46         25.8980     7.5770    31.9600 ns         1 Q1F      -0.523900
     37 O08         27.9410     4.3250    24.1580 os         1 Q1F      -0.405000
     38 O12         24.8660     6.2490    24.1150 oh         1 Q1F      -0.725000
     39 O13         26.2970     5.4390    21.9400 oh         1 Q1F      -0.706000
     40 O15         30.5550     5.5740    24.3830 os         1 Q1F      -0.578400
     41 O21         31.0120     6.7920    28.9090 os         1 Q1F      -0.631400
     42 O24         30.0470     8.8590    31.1950 os         1 Q1F      -0.427000
     43 O38         33.2310     9.9610    30.2150 oh         1 Q1F      -0.677000
     44 O39         32.4050    10.1610    32.6420 oh         1 Q1F      -0.686000
     45 O40         33.1000     7.4200    27.6100 o          1 Q1F      -0.840500
     46 O52         27.4740     7.0180    30.4380 o          1 Q1F      -0.587100
     47 P16         31.7540     6.2540    25.2140 p5         1 Q1F       1.454800
     48 P19         32.0900     6.3420    27.7990 p5         1 Q1F       1.458800
     49 H1          26.6740     6.8690    24.9820 h1         1 Q1F       0.084700
     50 H3          26.8580     2.7110    32.2090 hc         1 Q1F       0.049033
     51 H4          25.8310     2.4530    30.7770 hc         1 Q1F       0.049033
     52 H5          27.5720     2.1480    30.6890 hc         1 Q1F       0.049033
     53 H6          28.1090     4.4880    30.9580 h1         1 Q1F       0.134700
     54 H7          24.8200     4.2890    29.0820 ha         1 Q1F       0.192000
     55 H8          24.7100     4.4670    26.5910 h4         1 Q1F       0.204000
     56 H9          25.9400     3.9440    24.5430 h2         1 Q1F       0.097700
     57 H10         28.8870     5.0470    22.4400 h1         1 Q1F       0.118700
     58 H11         27.2200     7.1860    22.6190 h1         1 Q1F       0.074700
     59 H12         29.6280     7.2050    23.4650 h1         1 Q1F       0.026700
     60 H13         28.9260     6.7180    25.0230 h1         1 Q1F       0.026700
     61 H14         30.7070     8.6170    27.9160 h1         1 Q1F       0.057700
     62 H15         29.3410     8.0520    28.8710 h1         1 Q1F       0.057700
     63 H16         30.7650    10.0490    29.6970 h1         1 Q1F       0.064700
     64 H17         30.3850     8.6380    33.2260 h2         1 Q1F       0.084700
     65 H18         32.2100     6.0410    31.1030 h5         1 Q1F       0.119800
     66 H19         27.1110     6.0860    35.1740 h5         1 Q1F       0.030100
     67 H20         32.9830     8.1480    32.5560 h1         1 Q1F       0.050700
     68 H21         32.8440     7.9180    30.1900 h1         1 Q1F       0.072700
     69 H22         28.9620     4.6280    26.3750 h4         1 Q1F       0.204000
     70 H23         29.1280     4.4970    28.8470 ha         1 Q1F       0.192000
     71 H24         27.2060     9.2250    31.7860 h1         1 Q1F       0.103200
     72 H25         25.8700     9.4500    32.9210 h1         1 Q1F       0.103200
     73 H26         24.3080     5.6760    32.2240 h1         1 Q1F       0.037033
     74 H27         24.6080     3.9940    31.8090 h1         1 Q1F       0.037033
     75 H28         25.4210     4.7060    33.2330 h1         1 Q1F       0.037033
     76 H29         28.6390     1.9940    34.1370 hn         1 Q1F       0.499500
     77 H30         30.0010     2.2310    33.0800 hn         1 Q1F       0.499500
     78 H31         25.1910     7.2070    32.5800 hn         1 Q1F       0.323500
     79 H32         24.6430     7.2040    24.2440 ho         1 Q1F       0.528000
     80 H33         25.3650     5.4790    22.2710 ho         1 Q1F       0.511000
     81 H35         33.1830    10.4930    31.0530 ho         1 Q1F       0.509000
     82 H36         32.3440    10.0980    33.6250 ho         1 Q1F       0.492000
     83 C45         26.5900     6.6670    31.1990 c          1 Q1F       0.643100
     84 C53         25.0810     4.8990    32.2080 c3         1 Q1F       0.092300
     85 O17         32.9720     5.4040    25.0740 o          1 Q1F      -0.823500
     86 O18         31.0570     6.1600    26.6240 os         1 Q1F      -0.745800
     87 O41         31.9560     7.6570    24.7470 o          1 Q1F      -0.823500
@<TRIPOS>BOND
     1     1     9 1   
     2     1    11 1   
     3     1    38 1   
     4     1    49 1   
     5     2    48 1   
     6     3    15 1   
     7     3    16 1   
     8     3    18 1   
     9     4     5 1   
    10     4    50 1   
    11     4    51 1   
    12     4    52 1   
    13     5     6 1   
    14     5    35 1   
    15     5    53 1   
    16     6     7 ar  
    17     6    24 ar  
    18     7     8 ar  
    19     7    54 1   
    20     8    30 1   
    21     8    55 1   
    22     9    30 1   
    23     9    37 1   
    24     9    56 1   
    25    10    11 1   
    26    10    12 1   
    27    10    37 1   
    28    10    57 1   
    29    11    39 1   
    30    11    58 1   
    31    12    40 1   
    32    12    59 1   
    33    12    60 1   
    34    13    14 1   
    35    13    41 1   
    36    13    61 1   
    37    13    62 1   
    38    14    22 1   
    39    14    42 1   
    40    14    63 1   
    41    15    21 1   
    42    15    42 1   
    43    15    64 1   
    44    16    31 2   
    45    16    65 1   
    46    17    18 ar  
    47    17    20 ar  
    48    17    31 1   
    49    18    32 ar  
    50    19    32 ar  
    51    19    33 ar  
    52    19    66 1   
    53    20    33 ar  
    54    20    34 1   
    55    21    22 1   
    56    21    44 1   
    57    21    67 1   
    58    22    43 1   
    59    22    68 1   
    60    23    24 ar  
    61    23    30 2   
    62    23    69 1   
    63    24    70 1   
    64    25    26 1   
    65    25    36 1   
    66    25    71 1   
    67    25    72 1   
    68    26    27 1   
    69    26    28 1   
    70    26    29 1   
    71    34    76 1   
    72    34    77 1   
    73    35    83 1   
    74    35    84 1   
    75    36    78 1   
    76    36    83 1   
    77    38    79 1   
    78    39    80 1   
    79    40    47 1   
    80    41    48 1   
    81    43    81 1   
    82    44    82 1   
    83    45    48 1   
    84    46    83 2   
    85    47    85 1   
    86    47    86 1   
    87    47    87 1   
    88    48    86 1   
    89    73    84 1   
    90    74    84 1   
    91    75    84 1   
@<TRIPOS>SUBSTRUCTURE
     1 Q1F         1 TEMP              0 ****  ****    0 ROOT
