@<TRIPOS>MOLECULE
Q1F
   87    91     1     0     0
SMALL
abcg2


@<TRIPOS>ATOM
      1 C11         26.3350     6.4730    24.8520 c5         1 Q1F       0.072300
      2 O20         31.6990     4.5080    28.7200 o          1 Q1F      -0.840500
      3 N26         30.2510     7.2920    32.2300 na         1 Q1F      -0.287300
      4 C01         27.3160     2.3340    30.7720 c3         1 Q1F      -0.100100
      5 C02         27.4270     3.8300    30.5070 c3         1 Q1F       0.159000
      6 C03         27.2360     4.0880    29.0330 ca         1 Q1F       0.016700
      7 C04         25.9630     4.1750    28.4720 ca         1 Q1F      -0.111500
      8 C05         25.8240     4.4140    27.1310 ca         1 Q1F      -0.056500
      9 C07         26.6650     4.9750    24.9320 c5         1 Q1F       0.282300
     10 C09         28.1830     5.9620    23.4810 c5         1 Q1F       0.151300
     11 C10         26.9390     6.8360    23.4920 c5         1 Q1F       0.112300
     12 C14         29.3790     6.6200    24.1410 c3         1 Q1F       0.218600
     13 C22         31.3120     8.2900    28.3340 c3         1 Q1F       0.229600
     14 C23         31.4320     9.0390    29.6440 c5         1 Q1F       0.147300
     15 C25         30.6010     8.6290    31.7870 c5         1 Q1F       0.281300
     16 C27         30.6950     6.0860    31.7560 cc         1 Q1F       0.481700
     17 C29         29.2970     5.6150    33.2670 ca         1 Q1F      -0.087600
     18 C30         29.3350     6.9980    33.2020 ca         1 Q1F       0.108500
     19 C32         27.8170     7.1990    34.7780 ca         1 Q1F       0.147900
     20 C34         28.4000     5.0550    34.1910 ca         1 Q1F       0.434900
     21 C36         32.0970     8.9610    31.9270 c5         1 Q1F       0.079300
     22 C37         32.6140     8.6330    30.5220 c5         1 Q1F       0.157300
     23 C42         28.1400     4.4560    26.8460 ca         1 Q1F      -0.005800
     24 C43         28.3300     4.2090    28.1840 ca         1 Q1F      -0.111500
     25 C47         25.9880     8.2170    31.8810 c3         1 Q1F       0.053000
     26 C48         24.9180     8.7560    30.9560 c3         1 Q1F       0.269000
     27 F49         25.0240     8.2730    29.7120 f          1 Q1F      -0.121667
     28 F50         23.6860     8.4420    31.3840 f          1 Q1F      -0.121667
     29 F51         24.9780    10.0910    30.8720 f          1 Q1F      -0.121667
     30 N06         26.9030     4.5710    26.3460 na         1 Q1F       0.023300
     31 N28         30.1580     5.0640    32.3540 nd         1 Q1F      -0.582100
     32 N31         28.6190     7.8400    33.9450 nb         1 Q1F      -0.223000
     33 N33         27.6680     5.8870    34.9390 nb         1 Q1F      -0.324000
     34 N35         28.2550     3.7370    34.3460 nv         1 Q1F      -1.081900
     35 N44         26.5130     4.6480    31.2950 n          1 Q1F      -0.437800
     36 N46         25.9320     6.7890    31.9680 ns         1 Q1F      -0.523900
     37 O08         27.7920     4.7610    24.1740 os         1 Q1F      -0.405000
     38 O12         24.9580     6.6630    24.9590 oh         1 Q1F      -0.725000
     39 O13         26.0980     6.4310    22.4470 oh         1 Q1F      -0.706000
     40 O15         30.4350     5.6910    24.1530 os         1 Q1F      -0.578400
     41 O21         31.1120     6.9190    28.5830 os         1 Q1F      -0.631400
     42 O24         30.2750     8.8070    30.4390 os         1 Q1F      -0.427000
     43 O38         33.7600     9.3190    30.1210 oh         1 Q1F      -0.677000
     44 O39         32.2800    10.3320    32.1440 oh         1 Q1F      -0.686000
     45 O40         33.4420     6.1960    27.7400 o          1 Q1F      -0.840500
     46 O52         27.5430     6.4590    30.4120 o          1 Q1F      -0.587100
     47 P16         31.8190     6.0470    24.9790 p5         1 Q1F       1.454800
     48 P19         32.0320     5.7330    27.9230 p5         1 Q1F       1.458800
     49 H1          26.8780     7.0070    25.6410 h1         1 Q1F       0.084700
     50 H3          27.4720     2.1150    31.8280 hc         1 Q1F       0.049033
     51 H4          26.3590     1.9130    30.4610 hc         1 Q1F       0.049033
     52 H5          28.0980     1.8240    30.2090 hc         1 Q1F       0.049033
     53 H6          28.4480     4.1200    30.7630 h1         1 Q1F       0.134700
     54 H7          25.0700     4.0700    29.0730 ha         1 Q1F       0.192000
     55 H8          24.8580     4.4910    26.6540 h4         1 Q1F       0.204000
     56 H9          25.8260     4.3600    24.5890 h2         1 Q1F       0.097700
     57 H10         28.4510     5.6690    22.4630 h1         1 Q1F       0.118700
     58 H11         27.1860     7.9040    23.4320 h1         1 Q1F       0.074700
     59 H12         29.6360     7.5120    23.5590 h1         1 Q1F       0.026700
     60 H13         29.1260     6.9650    25.1510 h1         1 Q1F       0.026700
     61 H14         32.2120     8.4850    27.7440 h1         1 Q1F       0.057700
     62 H15         30.4640     8.6840    27.7640 h1         1 Q1F       0.057700
     63 H16         31.5130    10.1100    29.4110 h1         1 Q1F       0.064700
     64 H17         30.0010     9.2960    32.4120 h2         1 Q1F       0.084700
     65 H18         31.4080     6.0060    30.9520 h5         1 Q1F       0.119800
     66 H19         27.1960     7.8200    35.4140 h5         1 Q1F       0.030100
     67 H20         32.5670     8.3540    32.7100 h1         1 Q1F       0.050700
     68 H21         32.7670     7.5480    30.4580 h1         1 Q1F       0.072700
     69 H22         28.9690     4.5770    26.1660 h4         1 Q1F       0.204000
     70 H23         29.3450     4.1430    28.5570 ha         1 Q1F       0.192000
     71 H24         26.9650     8.5440    31.5260 h1         1 Q1F       0.103200
     72 H25         25.8390     8.6510    32.8700 h1         1 Q1F       0.103200
     73 H26         24.4630     4.5240    31.7750 h1         1 Q1F       0.037033
     74 H27         25.3590     3.0330    31.9500 h1         1 Q1F       0.037033
     75 H28         25.5600     4.2870    33.1520 h1         1 Q1F       0.037033
     76 H29         27.5820     3.3730    34.9990 hn         1 Q1F       0.499500
     77 H30         28.7750     3.0860    33.7850 hn         1 Q1F       0.499500
     78 H31         25.3300     6.3960    32.6720 hn         1 Q1F       0.323500
     79 H32         24.7850     7.5490    25.2950 ho         1 Q1F       0.528000
     80 H33         25.2090     6.7520    22.6350 ho         1 Q1F       0.511000
     81 H35         34.5280     8.9030    30.5240 ho         1 Q1F       0.509000
     82 H36         31.9820    10.5430    33.0350 ho         1 Q1F       0.492000
     83 C45         26.7120     5.9950    31.1830 c          1 Q1F       0.643100
     84 C53         25.4240     4.1060    32.0830 c3         1 Q1F       0.092300
     85 O17         32.8450     5.0880    24.4760 o          1 Q1F      -0.823500
     86 O18         31.2910     5.5530    26.4650 os         1 Q1F      -0.745800
     87 O41         32.0260     7.5290    24.9800 o          1 Q1F      -0.823500
@<TRIPOS>BOND
     1     1     9 1   
     2     1    11 1   
     3     1    38 1   
     4     1    49 1   
     5     2    48 1   
     6     3    15 1   
     7     3    16 1   
     8     3    18 1   
     9     4     5 1   
    10     4    50 1   
    11     4    51 1   
    12     4    52 1   
    13     5     6 1   
    14     5    35 1   
    15     5    53 1   
    16     6     7 ar  
    17     6    24 ar  
    18     7     8 ar  
    19     7    54 1   
    20     8    30 1   
    21     8    55 1   
    22     9    30 1   
    23     9    37 1   
    24     9    56 1   
    25    10    11 1   
    26    10    12 1   
    27    10    37 1   
    28    10    57 1   
    29    11    39 1   
    30    11    58 1   
    31    12    40 1   
    32    12    59 1   
    33    12    60 1   
    34    13    14 1   
    35    13    41 1   
    36    13    61 1   
    37    13    62 1   
    38    14    22 1   
    39    14    42 1   
    40    14    63 1   
    41    15    21 1   
    42    15    42 1   
    43    15    64 1   
    44    16    31 2   
    45    16    65 1   
    46    17    18 ar  
    47    17    20 ar  
    48    17    31 1   
    49    18    32 ar  
    50    19    32 ar  
    51    19    33 ar  
    52    19    66 1   
    53    20    33 ar  
    54    20    34 1   
    55    21    22 1   
    56    21    44 1   
    57    21    67 1   
    58    22    43 1   
    59    22    68 1   
    60    23    24 ar  
    61    23    30 2   
    62    23    69 1   
    63    24    70 1   
    64    25    26 1   
    65    25    36 1   
    66    25    71 1   
    67    25    72 1   
    68    26    27 1   
    69    26    28 1   
    70    26    29 1   
    71    34    76 1   
    72    34    77 1   
    73    35    83 1   
    74    35    84 1   
    75    36    78 1   
    76    36    83 1   
    77    38    79 1   
    78    39    80 1   
    79    40    47 1   
    80    41    48 1   
    81    43    81 1   
    82    44    82 1   
    83    45    48 1   
    84    46    83 2   
    85    47    85 1   
    86    47    86 1   
    87    47    87 1   
    88    48    86 1   
    89    73    84 1   
    90    74    84 1   
    91    75    84 1   
@<TRIPOS>SUBSTRUCTURE
     1 Q1F         1 TEMP              0 ****  ****    0 ROOT
