@<TRIPOS>MOLECULE
Q1G
   40    42     1     0     0
SMALL
No Charge or Current Charge


@<TRIPOS>ATOM
      1 C06         -0.3630   -19.1080    -0.8860 ca         1 Q1G      -0.312500
      2 C18          2.0750   -25.1500    -2.0750 cy         1 Q1G       0.031400
      3 C17          2.0290   -23.8570    -1.2550 ca         1 Q1G      -0.098300
      4 C16          2.0590   -22.6030    -1.8990 ca         1 Q1G      -0.057000
      5 C19          3.0850   -25.1690    -3.2860 cy         1 Q1G      -0.072400
      6 C20          3.3240   -26.6840    -2.9710 cy         1 Q1G      -0.089400
      7 C21          2.9730   -26.3090    -1.4930 cy         1 Q1G      -0.072400
      8 C22          0.6840   -25.5340    -2.4060 c1         1 Q1G       0.313900
      9 C24          1.9300   -23.9070     0.1490 ca         1 Q1G      -0.043000
     10 C11         -1.0420   -17.8380     1.0790 ca         1 Q1G      -0.234000
     11 C02          1.9150   -21.4720     0.2590 ca         1 Q1G       0.165100
     12 C03          1.9950   -21.4040    -1.1620 ca         1 Q1G       0.207000
     13 C12         -0.2460   -17.9630    -0.0730 ca         1 Q1G       0.265100
     14 N04          2.0070   -20.1840    -1.8560 nu         1 Q1G      -0.913100
     15 S05          0.6290   -19.3690    -2.3600 sy         1 Q1G       1.203600
     16 C07         -1.2690   -20.1270    -0.5210 ca         1 Q1G       0.047000
     17 C08         -2.0550   -19.9960     0.6350 ca         1 Q1G      -0.077900
     18 Br9         -3.2700   -21.3910     1.1230 br         1 Q1G      -0.095100
     19 C10         -1.9470   -18.8510     1.4360 ca         1 Q1G       0.008000
     20 O13          0.6260   -16.9590    -0.3590 oh         1 Q1G      -0.506100
     21 O14          1.1640   -18.1170    -2.9010 o          1 Q1G      -0.548000
     22 O15         -0.0210   -20.3570    -3.2240 o          1 Q1G      -0.548000
     23 N23         -0.3990   -25.8710    -2.6740 n1         1 Q1G      -0.454000
     24 C25          1.8790   -22.7220     0.9000 ca         1 Q1G      -0.202000
     25 H1           2.1120   -22.5560    -2.9840 ha         1 Q1G       0.132000
     26 H2           3.9730   -24.5410    -3.1440 hc         1 Q1G       0.062700
     27 H3           2.6640   -24.9470    -4.2730 hc         1 Q1G       0.062700
     28 H4           2.6180   -27.3710    -3.4520 hc         1 Q1G       0.059200
     29 H5           4.3410   -27.0530    -3.1420 hc         1 Q1G       0.059200
     30 H6           2.4530   -27.0820    -0.9140 hc         1 Q1G       0.062700
     31 H7           3.8330   -25.9640    -0.9060 hc         1 Q1G       0.062700
     32 H8           1.8920   -24.8660     0.6640 ha         1 Q1G       0.122000
     33 H9          -0.9610   -16.9570     1.7110 ha         1 Q1G       0.119000
     34 H10          1.8460   -20.6110     1.9730 ho         1 Q1G       0.463000
     35 H11          2.5230   -20.2090    -2.7240 hn         1 Q1G       0.503000
     36 H12         -1.3650   -21.0300    -1.1230 ha         1 Q1G       0.162000
     37 H13         -2.5560   -18.7510     2.3320 ha         1 Q1G       0.131000
     38 H14          0.5550   -16.2860     0.3480 ho         1 Q1G       0.479000
     39 H15          1.8130   -22.7830     1.9830 ha         1 Q1G       0.120000
     40 O01          1.8910   -20.3410     1.0330 oh         1 Q1G      -0.514100
@<TRIPOS>BOND
     1     1    13 ar  
     2     1    15 1   
     3     1    16 ar  
     4     2     3 1   
     5     2     5 1   
     6     2     7 1   
     7     2     8 1   
     8     3     4 ar  
     9     3     9 ar  
    10     4    12 ar  
    11     4    25 1   
    12     5     6 1   
    13     5    26 1   
    14     5    27 1   
    15     6     7 1   
    16     6    28 1   
    17     6    29 1   
    18     7    30 1   
    19     7    31 1   
    20     8    23 3   
    21     9    24 ar  
    22     9    32 1   
    23    10    13 ar  
    24    10    19 ar  
    25    10    33 1   
    26    11    12 ar  
    27    11    24 ar  
    28    11    40 1   
    29    12    14 1   
    30    13    20 1   
    31    14    15 1   
    32    14    35 1   
    33    15    21 2   
    34    15    22 2   
    35    16    17 ar  
    36    16    36 1   
    37    17    18 1   
    38    17    19 ar  
    39    19    37 1   
    40    20    38 1   
    41    24    39 1   
    42    34    40 1   
@<TRIPOS>SUBSTRUCTURE
     1 Q1G         1 TEMP              0 ****  ****    0 ROOT
