@<TRIPOS>MOLECULE
Q1G
   40    42     1     0     0
SMALL
abcg2


@<TRIPOS>ATOM
      1 C06         -0.4500   -19.2080    -0.9240 ca         1 Q1G      -0.312500
      2 C18          2.1290   -25.1370    -2.0220 cy         1 Q1G       0.031400
      3 C17          2.0520   -23.8700    -1.1980 ca         1 Q1G      -0.098300
      4 C16          2.0160   -22.6230    -1.8070 ca         1 Q1G      -0.057000
      5 C19          2.8860   -25.1090    -3.3940 cy         1 Q1G      -0.072400
      6 C20          3.5010   -26.4860    -3.0580 cy         1 Q1G      -0.089400
      7 C21          3.1330   -26.2590    -1.5750 cy         1 Q1G      -0.072400
      8 C22          0.7890   -25.6890    -2.1850 c1         1 Q1G       0.313900
      9 C24          1.9890   -23.9340     0.1940 ca         1 Q1G      -0.043000
     10 C11         -0.8640   -17.9410     1.0790 ca         1 Q1G      -0.234000
     11 C02          1.8940   -21.5270     0.3420 ca         1 Q1G       0.165100
     12 C03          1.9400   -21.4530    -1.0560 ca         1 Q1G       0.207000
     13 C12         -0.0740   -18.1810    -0.0460 ca         1 Q1G       0.265100
     14 N04          1.9160   -20.1710    -1.6920 nu         1 Q1G      -0.913100
     15 S05          0.5170   -19.6080    -2.3510 sy         1 Q1G       1.203600
     16 C07         -1.5880   -19.9740    -0.6750 ca         1 Q1G       0.047000
     17 C08         -2.3500   -19.7110     0.4460 ca         1 Q1G      -0.077900
     18 BR9         -3.9160   -20.7590     0.7830 br         1 Q1G      -0.095100
     19 C10         -1.9940   -18.7000     1.3310 ca         1 Q1G       0.008000
     20 O13          1.0310   -17.4570    -0.3050 oh         1 Q1G      -0.506100
     21 O14          0.8790   -18.4210    -3.0880 o          1 Q1G      -0.548000
     22 O15         -0.1980   -20.6480    -3.0560 o          1 Q1G      -0.548000
     23 N23         -0.2700   -26.1270    -2.3120 n1         1 Q1G      -0.454000
     24 C25          1.9120   -22.7810     0.9560 ca         1 Q1G      -0.202000
     25 H1           2.0470   -22.5350    -2.8850 ha         1 Q1G       0.132000
     26 H2           3.6290   -24.3140    -3.3740 hc         1 Q1G       0.062700
     27 H3           2.2760   -25.0180    -4.2900 hc         1 Q1G       0.062700
     28 H4           2.9310   -27.3040    -3.4980 hc         1 Q1G       0.059200
     29 H5           4.5550   -26.6210    -3.2870 hc         1 Q1G       0.059200
     30 H6           2.7200   -27.0920    -1.0110 hc         1 Q1G       0.062700
     31 H7           3.9470   -25.8030    -1.0130 hc         1 Q1G       0.062700
     32 H8           2.0070   -24.8960     0.6920 ha         1 Q1G       0.122000
     33 H9          -0.5770   -17.1530     1.7650 ha         1 Q1G       0.119000
     34 H10          1.7980   -20.5720     1.9980 ho         1 Q1G       0.463000
     35 H11          2.7190   -19.9180    -2.2570 hn         1 Q1G       0.503000
     36 H12         -1.8530   -20.7630    -1.3610 ha         1 Q1G       0.162000
     37 H13         -2.5910   -18.5030     2.2100 ha         1 Q1G       0.131000
     38 H14          1.1770   -16.8100     0.4000 ho         1 Q1G       0.479000
     39 H15          1.8770   -22.8400     2.0370 ha         1 Q1G       0.120000
     40 O01          1.8510   -20.3740     1.0530 oh         1 Q1G      -0.514100
@<TRIPOS>BOND
     1     1    13 ar  
     2     1    15 1   
     3     1    16 ar  
     4     2     3 1   
     5     2     5 1   
     6     2     7 1   
     7     2     8 1   
     8     3     4 ar  
     9     3     9 ar  
    10     4    12 ar  
    11     4    25 1   
    12     5     6 1   
    13     5    26 1   
    14     5    27 1   
    15     6     7 1   
    16     6    28 1   
    17     6    29 1   
    18     7    30 1   
    19     7    31 1   
    20     8    23 3   
    21     9    24 ar  
    22     9    32 1   
    23    10    13 ar  
    24    10    19 ar  
    25    10    33 1   
    26    11    12 ar  
    27    11    24 ar  
    28    11    40 1   
    29    12    14 1   
    30    13    20 1   
    31    14    15 1   
    32    14    35 1   
    33    15    21 2   
    34    15    22 2   
    35    16    17 ar  
    36    16    36 1   
    37    17    18 1   
    38    17    19 ar  
    39    19    37 1   
    40    20    38 1   
    41    24    39 1   
    42    34    40 1   
@<TRIPOS>SUBSTRUCTURE
     1 Q1G         1 TEMP              0 ****  ****    0 ROOT
