@<TRIPOS>MOLECULE
Q1H
   30    32     1     0     0
SMALL
bcc


@<TRIPOS>ATOM
      1 C4         -31.2010    44.8290     5.7240 ca         1 Q1H      -0.212300
      2 C5         -32.0660    45.8930     5.4930 ca         1 Q1H      -0.033000
      3 C6         -28.6890    49.4000     5.6290 c3         1 Q1H       0.035000
      4 C7         -29.2960    46.3120     5.9550 ca         1 Q1H      -0.125000
      5 C8         -28.1520    49.5880     4.2570 cc         1 Q1H       0.187000
      6 C12        -27.4260    50.2210     2.2500 cd         1 Q1H      -0.273300
      7 C3         -31.7350    43.4350     5.7680 c3         1 Q1H       0.722200
      8 C1         -31.5360    47.1750     5.4850 ca         1 Q1H       0.098400
      9 C2         -30.1620    47.3630     5.7140 ca         1 Q1H      -0.055200
     10 F2         -32.0190    43.0410     7.0220 f          1 Q1H      -0.238300
     11 F          -32.8650    43.2980     5.0640 f          1 Q1H      -0.238300
     12 F1         -30.8640    42.5380     5.2840 f          1 Q1H      -0.238300
     13 N1         -32.1540    48.3800     5.2660 nc         1 Q1H      -0.635100
     14 C          -31.1950    49.2690     5.3450 cd         1 Q1H       0.649700
     15 N2         -31.3470    50.5900     5.1150 nv         1 Q1H      -0.900800
     16 C9         -29.8380    45.0350     5.9620 ca         1 Q1H      -0.086000
     17 N          -29.9700    48.7230     5.6310 na         1 Q1H      -0.185300
     18 C10        -27.9140    50.6910     3.5080 cd         1 Q1H      -0.233300
     19 C11        -27.4150    48.8710     2.3370 cc         1 Q1H       0.251600
     20 O          -27.8510    48.4770     3.5510 os         1 Q1H      -0.314800
     21 H1         -33.1230    45.7460     5.3110 ha         1 Q1H       0.162000
     22 H2         -28.0050    48.8180     6.2490 h1         1 Q1H       0.072200
     23 H3         -28.7770    50.3710     6.1160 h1         1 Q1H       0.072200
     24 H4         -28.2380    46.4590     6.1260 ha         1 Q1H       0.141000
     25 H5         -27.1290    50.8110     1.3990 ha         1 Q1H       0.164000
     26 H6         -32.2990    50.9200     5.1120 hn         1 Q1H       0.425800
     27 H7         -30.6950    51.2390     5.5240 hn         1 Q1H       0.425800
     28 H8         -29.1800    44.1960     6.1440 ha         1 Q1H       0.145000
     29 H9         -28.0690    51.7130     3.8130 ha         1 Q1H       0.157000
     30 H10        -27.1330    48.0920     1.6470 h4         1 Q1H       0.058100
@<TRIPOS>BOND
     1     1     2 ar  
     2     1     7 1   
     3     1    16 ar  
     4     2     8 ar  
     5     2    21 1   
     6     3     5 1   
     7     3    17 1   
     8     3    22 1   
     9     3    23 1   
    10     4     9 ar  
    11     4    16 ar  
    12     4    24 1   
    13     5    18 2   
    14     5    20 1   
    15     6    18 1   
    16     6    19 2   
    17     6    25 1   
    18     7    10 1   
    19     7    11 1   
    20     7    12 1   
    21     8     9 ar  
    22     8    13 1   
    23     9    17 1   
    24    13    14 2   
    25    14    15 1   
    26    14    17 1   
    27    15    26 1   
    28    15    27 1   
    29    16    28 1   
    30    18    29 1   
    31    19    20 1   
    32    19    30 1   
@<TRIPOS>SUBSTRUCTURE
     1 Q1H         1 TEMP              0 ****  ****    0 ROOT
