@<TRIPOS>MOLECULE
Q1H
   30    32     1     0     0
SMALL
No Charge or Current Charge


@<TRIPOS>ATOM
      1 C4         -31.2400    44.9390     5.5570 ca         1 Q1H      -0.212300
      2 C5         -32.1120    46.0580     5.5560 ca         1 Q1H      -0.015000
      3 C6         -28.6340    49.5080     5.6570 c3         1 Q1H       0.064300
      4 C7         -29.3090    46.4550     5.6960 ca         1 Q1H      -0.107000
      5 C8         -28.0480    49.4520     4.2730 cc         1 Q1H       0.077300
      6 C12        -27.5620    49.5970     2.0990 cd         1 Q1H      -0.190000
      7 C3         -31.8080    43.5170     5.5010 c3         1 Q1H       0.358300
      8 C1         -31.5670    47.3510     5.6170 ca         1 Q1H       0.098400
      9 C2         -30.2090    47.5300     5.6850 ca         1 Q1H      -0.055200
     10 F2         -32.0160    43.0230     6.7420 f          1 Q1H      -0.117000
     11 F          -32.9920    43.4600     4.8500 f          1 Q1H      -0.117000
     12 F1         -30.9780    42.6570     4.8670 f          1 Q1H      -0.117000
     13 N1         -32.2530    48.5600     5.6150 nc         1 Q1H      -0.635100
     14 C          -31.2450    49.4230     5.6770 cd         1 Q1H       0.649700
     15 N2         -31.4840    50.7410     5.6720 nv         1 Q1H      -1.011200
     16 C9         -29.8370    45.1500     5.6340 ca         1 Q1H      -0.068000
     17 N          -29.9620    48.8750     5.7400 na         1 Q1H      -0.214600
     18 C10        -28.5050    49.9530     3.0850 cd         1 Q1H      -0.150000
     19 C11        -26.5690    48.8940     2.7250 cc         1 Q1H       0.141900
     20 O          -26.8530    48.7960     4.0700 os         1 Q1H      -0.226000
     21 H1         -33.1910    45.9340     5.5090 ha         1 Q1H       0.144000
     22 H2         -27.9580    49.0030     6.3590 h1         1 Q1H       0.072200
     23 H3         -28.7080    50.5560     5.9700 h1         1 Q1H       0.072200
     24 H4         -28.2360    46.6170     5.7530 ha         1 Q1H       0.123000
     25 H5         -27.6080    49.8310     1.0410 ha         1 Q1H       0.146000
     26 H6         -32.4460    51.0090     5.8440 hn         1 Q1H       0.481000
     27 H7         -30.7750    51.3490     6.0620 hn         1 Q1H       0.481000
     28 H8         -29.1530    44.3040     5.6490 ha         1 Q1H       0.127000
     29 H9         -29.4240    50.5130     2.9370 ha         1 Q1H       0.139000
     30 H10        -25.6600    48.4340     2.3610 h4         1 Q1H       0.058100
@<TRIPOS>BOND
     1     1     2 ar  
     2     1     7 1   
     3     1    16 ar  
     4     2     8 ar  
     5     2    21 1   
     6     3     5 1   
     7     3    17 1   
     8     3    22 1   
     9     3    23 1   
    10     4     9 ar  
    11     4    16 ar  
    12     4    24 1   
    13     5    18 2   
    14     5    20 1   
    15     6    18 1   
    16     6    19 2   
    17     6    25 1   
    18     7    10 1   
    19     7    11 1   
    20     7    12 1   
    21     8     9 ar  
    22     8    13 1   
    23     9    17 1   
    24    13    14 2   
    25    14    15 1   
    26    14    17 1   
    27    15    26 1   
    28    15    27 1   
    29    16    28 1   
    30    18    29 1   
    31    19    20 1   
    32    19    30 1   
@<TRIPOS>SUBSTRUCTURE
     1 Q1H         1 TEMP              0 ****  ****    0 ROOT
