@<TRIPOS>MOLECULE
Q1I
   56    59     1     0     0
SMALL
No Charge or Current Charge


@<TRIPOS>ATOM
      1 C01          3.8020     6.1790    20.7020 ca         1 Q1I      -0.162300
      2 C02          5.1030     6.6260    21.0450 ca         1 Q1I       0.421300
      3 N03          6.0180     6.8750    20.0910 nb         1 Q1I      -0.739000
      4 C04          5.7210     6.6830    18.8090 ca         1 Q1I       0.649900
      5 C05          4.4850     6.1910    18.3490 ca         1 Q1I      -0.258500
      6 C06          3.4840     5.9480    19.3340 cp         1 Q1I       0.074000
      7 C07          2.1340     5.4290    18.9660 cp         1 Q1I      -0.055000
      8 N09          6.8010     7.0200    17.9780 nh         1 Q1I      -0.819300
      9 C10          5.4990     6.8920    22.5210 c5         1 Q1I      -0.124000
     10 C11          1.9090     4.0390    18.8280 ca         1 Q1I      -0.087000
     11 C13         -0.4330     4.4390    18.2960 ca         1 Q1I      -0.099000
     12 C15          1.0470     6.3130    18.7660 ca         1 Q1I      -0.087000
     13 C16          7.0110     6.5310    22.7850 c5         1 Q1I      -0.067900
     14 C17          7.7170     7.9090    22.8710 c5         1 Q1I      -0.075900
     15 C18          6.6490     8.7360    23.6250 c5         1 Q1I      -0.075900
     16 C19          5.4040     8.4400    22.7550 c5         1 Q1I      -0.067900
     17 C20          7.0340     8.4360    17.5960 c3         1 Q1I       0.254500
     18 C21          5.7350     9.2080    17.2700 c3         1 Q1I      -0.105100
     19 C22          7.9880     6.1340    17.9900 c3         1 Q1I       0.209100
     20 C27          7.8800     9.2100    18.6310 c3         1 Q1I      -0.105100
     21 C28          2.7600     5.9390    21.8080 c3         1 Q1I      -0.037800
     22 C08          4.2690     5.9920    16.9030 cc         1 Q1I       0.475000
     23 C12          0.6350     3.5470    18.4940 ca         1 Q1I      -0.107000
     24 C14         -0.2270     5.8220    18.4330 ca         1 Q1I      -0.107000
     25 N23          3.1270     5.8070    16.2690 nd         1 Q1I      -0.380000
     26 N24          3.4180     5.6560    14.9340 nd         1 Q1I      -0.050000
     27 N25          4.6970     5.7490    14.7090 nc         1 Q1I      -0.213800
     28 N26          5.2310     5.9540    15.9360 na         1 Q1I      -0.206700
     29 H29          4.8820     6.3450    23.2400 hc         1 Q1I       0.060700
     30 H30          2.7310     3.3440    18.9820 ha         1 Q1I       0.114000
     31 H32         -1.4190     4.0590    18.0380 ha         1 Q1I       0.114000
     32 H34          1.2000     7.3850    18.8720 ha         1 Q1I       0.114000
     33 H35          7.1090     6.0000    23.7390 hc         1 Q1I       0.045950
     34 H36          7.4580     5.8720    22.0310 hc         1 Q1I       0.045950
     35 H37          8.6680     7.8570    23.4140 hc         1 Q1I       0.043200
     36 H38          7.9290     8.3230    21.8780 hc         1 Q1I       0.043200
     37 H39          6.5190     8.3940    24.6590 hc         1 Q1I       0.043200
     38 H40          6.8920     9.8050    23.6570 hc         1 Q1I       0.043200
     39 H42          5.4480     9.0090    21.8180 hc         1 Q1I       0.045950
     40 H41          4.4710     8.7270    23.2530 hc         1 Q1I       0.045950
     41 H43          7.6160     8.4290    16.6640 h1         1 Q1I       0.040700
     42 H45          5.9710    10.2230    16.9290 hc         1 Q1I       0.043367
     43 H44          5.1740     8.7130    16.4700 hc         1 Q1I       0.043367
     44 H46          5.0890     9.2890    18.1520 hc         1 Q1I       0.043367
     45 H48          8.6360     6.3390    17.1280 h1         1 Q1I       0.044033
     46 H49          8.5740     6.2820    18.9070 h1         1 Q1I       0.044033
     47 H47          7.6820     5.0810    17.9390 h1         1 Q1I       0.044033
     48 H53          8.1000    10.2210    18.2670 hc         1 Q1I       0.043367
     49 H52          7.3480     9.3010    19.5840 hc         1 Q1I       0.043367
     50 H51          8.8360     8.7070    18.8150 hc         1 Q1I       0.043367
     51 H56          2.6820     6.8070    22.4730 hc         1 Q1I       0.045700
     52 H55          1.7490     5.7560    21.4320 hc         1 Q1I       0.045700
     53 H54          3.0330     5.0700    22.4180 hc         1 Q1I       0.045700
     54 H31          0.4760     2.4760    18.3900 ha         1 Q1I       0.114500
     55 H33         -1.0530     6.5130    18.2800 ha         1 Q1I       0.114500
     56 H50          6.2190     6.1080    16.0960 hn         1 Q1I       0.388000
@<TRIPOS>BOND
     1     1     2 ar  
     2     1     6 ar  
     3     1    21 1   
     4     2     3 ar  
     5     2     9 1   
     6     3     4 ar  
     7     4     5 ar  
     8     4     8 1   
     9     5     6 ar  
    10     5    22 1   
    11     6     7 1   
    12     7    10 ar  
    13     7    12 ar  
    14     8    17 1   
    15     8    19 1   
    16     9    13 1   
    17     9    16 1   
    18     9    29 1   
    19    10    23 ar  
    20    10    30 1   
    21    11    23 ar  
    22    11    24 ar  
    23    11    31 1   
    24    12    24 ar  
    25    12    32 1   
    26    13    14 1   
    27    13    33 1   
    28    13    34 1   
    29    14    15 1   
    30    14    35 1   
    31    14    36 1   
    32    15    16 1   
    33    15    37 1   
    34    15    38 1   
    35    16    39 1   
    36    16    40 1   
    37    17    18 1   
    38    17    20 1   
    39    17    41 1   
    40    18    42 1   
    41    18    43 1   
    42    18    44 1   
    43    19    45 1   
    44    19    46 1   
    45    19    47 1   
    46    20    48 1   
    47    20    49 1   
    48    20    50 1   
    49    21    51 1   
    50    21    52 1   
    51    21    53 1   
    52    22    25 2   
    53    22    28 1   
    54    23    54 1   
    55    24    55 1   
    56    25    26 1   
    57    26    27 2   
    58    27    28 1   
    59    28    56 1   
@<TRIPOS>SUBSTRUCTURE
     1 Q1I         1 TEMP              0 ****  ****    0 ROOT
