@<TRIPOS>MOLECULE
Q1I
   56    59     1     0     0
SMALL
abcg2


@<TRIPOS>ATOM
      1 C01          3.6550     6.3710    20.6890 ca         1 Q1I      -0.162300
      2 C02          4.7340     7.2320    20.9530 ca         1 Q1I       0.421300
      3 N03          5.6480     7.5360    20.0460 nb         1 Q1I      -0.739000
      4 C04          5.5680     7.0630    18.8070 ca         1 Q1I       0.649900
      5 C05          4.4520     6.3000    18.4100 ca         1 Q1I      -0.258500
      6 C06          3.5140     5.9260    19.3750 cp         1 Q1I       0.074000
      7 C07          2.3430     5.1080    18.9680 cp         1 Q1I      -0.055000
      8 N09          6.5880     7.3410    17.9340 nh         1 Q1I      -0.819300
      9 C10          4.9230     7.8000    22.3390 c5         1 Q1I      -0.124000
     10 C11          2.3060     3.7440    19.2410 ca         1 Q1I      -0.087000
     11 C13          0.1580     3.5710    18.1710 ca         1 Q1I      -0.099000
     12 C15          1.2750     5.6980    18.2990 ca         1 Q1I      -0.087000
     13 C16          5.7600     6.8260    23.1990 c5         1 Q1I      -0.067900
     14 C17          7.2010     7.2400    22.9220 c5         1 Q1I      -0.075900
     15 C18          7.1370     8.7680    22.8940 c5         1 Q1I      -0.075900
     16 C19          5.7220     9.1180    22.3870 c5         1 Q1I      -0.067900
     17 C20          7.4420     8.5240    18.0580 c3         1 Q1I       0.254500
     18 C21          6.6550     9.8090    18.2740 c3         1 Q1I      -0.105100
     19 C22          7.0990     6.3200    17.0410 c3         1 Q1I       0.209100
     20 C27          8.5740     8.3620    19.0700 c3         1 Q1I      -0.105100
     21 C28          2.6720     6.0140    21.7670 c3         1 Q1I      -0.037800
     22 C08          4.2120     6.0000    16.9990 cc         1 Q1I       0.475000
     23 C12          1.2190     2.9790    18.8450 ca         1 Q1I      -0.107000
     24 C14          0.1880     4.9320    17.9010 ca         1 Q1I      -0.107000
     25 N23          4.0510     4.8330    16.4160 nd         1 Q1I      -0.380000
     26 N24          3.8460     5.0830    15.1240 nd         1 Q1I      -0.050000
     27 N25          3.8770     6.3360    14.8850 nc         1 Q1I      -0.213800
     28 N26          4.1010     6.9270    16.0430 na         1 Q1I      -0.206700
     29 H29          3.9390     7.9400    22.7890 hc         1 Q1I       0.060700
     30 H30          3.1340     3.2790    19.7620 ha         1 Q1I       0.114000
     31 H32         -0.6890     2.9730    17.8590 ha         1 Q1I       0.114000
     32 H34          1.2960     6.7610    18.0870 ha         1 Q1I       0.114000
     33 H35          5.5220     6.9870    24.2540 hc         1 Q1I       0.045950
     34 H36          5.5590     5.7760    22.9800 hc         1 Q1I       0.045950
     35 H37          7.8980     6.8590    23.6700 hc         1 Q1I       0.043200
     36 H38          7.5230     6.8520    21.9530 hc         1 Q1I       0.043200
     37 H39          7.2800     9.1600    23.9040 hc         1 Q1I       0.043200
     38 H40          7.9210     9.2060    22.2740 hc         1 Q1I       0.043200
     39 H42          5.7510     9.5980    21.4100 hc         1 Q1I       0.045950
     40 H41          5.2310     9.8170    23.0650 hc         1 Q1I       0.045950
     41 H43          7.9030     8.6150    17.0700 h1         1 Q1I       0.040700
     42 H45          7.3240    10.6620    18.1590 hc         1 Q1I       0.043367
     43 H44          5.8580     9.9080    17.5360 hc         1 Q1I       0.043367
     44 H46          6.2140     9.8640    19.2670 hc         1 Q1I       0.043367
     45 H48          6.8610     6.5110    15.9910 h1         1 Q1I       0.044033
     46 H49          8.1860     6.2710    17.1270 h1         1 Q1I       0.044033
     47 H47          6.7230     5.3350    17.3090 h1         1 Q1I       0.044033
     48 H53          9.2650     9.2030    18.9900 hc         1 Q1I       0.043367
     49 H52          8.1920     8.3290    20.0870 hc         1 Q1I       0.043367
     50 H51          9.1460     7.4510    18.8890 hc         1 Q1I       0.043367
     51 H56          2.1230     6.8910    22.1150 hc         1 Q1I       0.045700
     52 H55          1.9370     5.2910    21.4240 hc         1 Q1I       0.045700
     53 H54          3.1700     5.5860    22.6380 hc         1 Q1I       0.045700
     54 H31          1.2020     1.9180    19.0590 ha         1 Q1I       0.114500
     55 H33         -0.6360     5.4010    17.3790 ha         1 Q1I       0.114500
     56 H50          4.1700     7.9340    16.1130 hn         1 Q1I       0.388000
@<TRIPOS>BOND
     1     1     2 ar  
     2     1     6 ar  
     3     1    21 1   
     4     2     3 ar  
     5     2     9 1   
     6     3     4 ar  
     7     4     5 ar  
     8     4     8 1   
     9     5     6 ar  
    10     5    22 1   
    11     6     7 1   
    12     7    10 ar  
    13     7    12 ar  
    14     8    17 1   
    15     8    19 1   
    16     9    13 1   
    17     9    16 1   
    18     9    29 1   
    19    10    23 ar  
    20    10    30 1   
    21    11    23 ar  
    22    11    24 ar  
    23    11    31 1   
    24    12    24 ar  
    25    12    32 1   
    26    13    14 1   
    27    13    33 1   
    28    13    34 1   
    29    14    15 1   
    30    14    35 1   
    31    14    36 1   
    32    15    16 1   
    33    15    37 1   
    34    15    38 1   
    35    16    39 1   
    36    16    40 1   
    37    17    18 1   
    38    17    20 1   
    39    17    41 1   
    40    18    42 1   
    41    18    43 1   
    42    18    44 1   
    43    19    45 1   
    44    19    46 1   
    45    19    47 1   
    46    20    48 1   
    47    20    49 1   
    48    20    50 1   
    49    21    51 1   
    50    21    52 1   
    51    21    53 1   
    52    22    25 2   
    53    22    28 1   
    54    23    54 1   
    55    24    55 1   
    56    25    26 1   
    57    26    27 2   
    58    27    28 1   
    59    28    56 1   
@<TRIPOS>SUBSTRUCTURE
     1 Q1I         1 TEMP              0 ****  ****    0 ROOT
