@<TRIPOS>MOLECULE
Q1J
   42    44     1     0     0
SMALL
bcc


@<TRIPOS>ATOM
      1 C05         -1.3040     1.8920     1.0140 ca         1 Q1J      -0.085900
      2 C13          2.4590    -1.0190    -0.1980 ca         1 Q1J       0.065600
      3 C18          0.6250    -2.6050    -0.2870 cp         1 Q1J      -0.062000
      4 C17          1.4310    -3.5180     0.3920 ca         1 Q1J      -0.069000
      5 C16          2.7270    -3.2020     0.7660 ca         1 Q1J      -0.215000
      6 C19         -0.7540    -2.9430    -0.6910 cp         1 Q1J      -0.028000
      7 C20         -1.5560    -3.7570     0.1100 ca         1 Q1J      -0.118500
      8 C21         -2.8530    -4.0730    -0.2690 ca         1 Q1J      -0.128000
      9 C22         -3.3770    -3.5760    -1.4550 ca         1 Q1J      -0.124000
     10 C23         -2.5900    -2.7630    -2.2600 ca         1 Q1J      -0.128000
     11 C24         -1.2920    -2.4530    -1.8830 ca         1 Q1J      -0.118500
     12 C11          1.2560     3.1590    -3.1070 c3         1 Q1J       0.129700
     13 C03          0.9740     1.8760     0.2920 ca         1 Q1J      -0.317500
     14 C04          0.0270     1.6120     1.2700 ca         1 Q1J       0.033000
     15 C07         -1.6840     2.4290    -0.2060 ca         1 Q1J      -0.011000
     16 C08         -0.7340     2.6960    -1.1790 ca         1 Q1J      -0.247000
     17 C09          0.6140     2.4270    -0.9470 ca         1 Q1J       0.253100
     18 C14          3.2530    -1.9450     0.4880 ca         1 Q1J       0.142100
     19 C25          1.1720    -1.3580    -0.5810 ca         1 Q1J      -0.068000
     20 N12          2.9500     0.2780    -0.4890 nu         1 Q1J      -0.695500
     21 O01          3.5430     2.5750     0.2930 o          1 Q1J      -0.608800
     22 O10          1.5850     2.6410    -1.8270 os         1 Q1J      -0.299900
     23 O15          4.4940    -1.5710     0.8270 oh         1 Q1J      -0.492100
     24 O26          2.7000     0.9380     1.9850 o          1 Q1J      -0.608800
     25 S02          2.6640     1.4710     0.6320 sy         1 Q1J       1.308200
     26 BR6         -2.6040     1.5270     2.3280 br         1 Q1J      -0.085100
     27 H1           1.0560    -4.5080     0.6190 ha         1 Q1J       0.137000
     28 H2           3.3300    -3.9380     1.2850 ha         1 Q1J       0.137000
     29 H3          -1.1740    -4.1350     1.0510 ha         1 Q1J       0.131000
     30 H4          -3.4580    -4.7040     0.3700 ha         1 Q1J       0.131000
     31 H5          -4.3900    -3.8200    -1.7480 ha         1 Q1J       0.131000
     32 H6          -2.9830    -2.3750    -3.1910 ha         1 Q1J       0.131000
     33 H7          -0.6860    -1.8390    -2.5380 ha         1 Q1J       0.131000
     34 H8           0.5820     2.4920    -3.6480 h1         1 Q1J       0.050033
     35 H9           0.8030     4.1490    -3.0340 h1         1 Q1J       0.050033
     36 H10          2.1920     3.2370    -3.6510 h1         1 Q1J       0.050033
     37 H11          0.3340     1.1810     2.2120 ha         1 Q1J       0.179000
     38 H12         -2.7220     2.6460    -0.4190 ha         1 Q1J       0.147000
     39 H13         -1.0670     3.1120    -2.1190 ha         1 Q1J       0.141000
     40 H14          0.5880    -0.6170    -1.1120 ha         1 Q1J       0.148000
     41 H15          3.8920     0.3370    -0.8640 hn         1 Q1J       0.449800
     42 H16          4.9630    -2.2970     1.2530 ho         1 Q1J       0.438000
@<TRIPOS>BOND
     1     1    14 ar  
     2     1    15 ar  
     3     1    26 1   
     4     2    18 ar  
     5     2    19 ar  
     6     2    20 1   
     7     3     4 ar  
     8     3     6 1   
     9     3    19 ar  
    10     4     5 ar  
    11     4    27 1   
    12     5    18 ar  
    13     5    28 1   
    14     6     7 ar  
    15     6    11 ar  
    16     7     8 ar  
    17     7    29 1   
    18     8     9 ar  
    19     8    30 1   
    20     9    10 ar  
    21     9    31 1   
    22    10    11 ar  
    23    10    32 1   
    24    11    33 1   
    25    12    22 1   
    26    12    34 1   
    27    12    35 1   
    28    12    36 1   
    29    13    14 ar  
    30    13    17 ar  
    31    13    25 1   
    32    14    37 1   
    33    15    16 ar  
    34    15    38 1   
    35    16    17 ar  
    36    16    39 1   
    37    17    22 1   
    38    18    23 1   
    39    19    40 1   
    40    20    25 1   
    41    20    41 1   
    42    21    25 2   
    43    23    42 1   
    44    24    25 2   
@<TRIPOS>SUBSTRUCTURE
     1 Q1J         1 TEMP              0 ****  ****    0 ROOT
