@<TRIPOS>MOLECULE
Q1J
   42    44     1     0     0
SMALL
No Charge or Current Charge


@<TRIPOS>ATOM
      1 C05         -1.7540     1.9580    -0.7970 ca         1 Q1J      -0.085900
      2 C13          2.1700    -0.7710     0.3880 ca         1 Q1J       0.204000
      3 C18          0.4780    -2.4890    -0.1400 cp         1 Q1J      -0.062000
      4 C17          1.4110    -3.1020    -1.0120 ca         1 Q1J      -0.051000
      5 C16          2.6980    -2.5680    -1.1860 ca         1 Q1J      -0.197000
      6 C19         -0.9030    -3.0410     0.0280 cp         1 Q1J      -0.028000
      7 C20         -1.1400    -4.4390     0.0290 ca         1 Q1J      -0.100500
      8 C21         -2.4390    -4.9540     0.1830 ca         1 Q1J      -0.110000
      9 C22         -3.5280    -4.0810     0.3380 ca         1 Q1J      -0.106000
     10 C23         -3.3170    -2.6930     0.3370 ca         1 Q1J      -0.110000
     11 C24         -2.0180    -2.1790     0.1840 ca         1 Q1J      -0.100500
     12 C11          2.9840     2.7220    -2.6140 c3         1 Q1J       0.152900
     13 C03          0.5110     1.9810     0.1010 ca         1 Q1J      -0.317500
     14 C04         -0.8760     1.8040     0.2860 ca         1 Q1J       0.051000
     15 C07         -1.2590     2.2940    -2.0650 ca         1 Q1J       0.007000
     16 C08          0.1230     2.4710    -2.2520 ca         1 Q1J      -0.229000
     17 C09          1.0190     2.3100    -1.1710 ca         1 Q1J       0.253100
     18 C14          3.0790    -1.4050    -0.4970 ca         1 Q1J       0.142100
     19 C25          0.8850    -1.3270     0.5610 ca         1 Q1J      -0.050000
     20 N12          2.5590     0.4040     1.0460 nu         1 Q1J      -0.889100
     21 O01          2.5920     2.7970     1.5720 o          1 Q1J      -0.538000
     22 O10          2.3830     2.4460    -1.3380 os         1 Q1J      -0.323100
     23 O15          4.3330    -0.8860    -0.7020 oh         1 Q1J      -0.531100
     24 O26          0.8600     1.2520     2.6570 o          1 Q1J      -0.538000
     25 S02          1.6100     1.7140     1.4860 sy         1 Q1J       1.166600
     26 Br6         -3.6320     1.6930    -0.5450 br         1 Q1J      -0.085100
     27 H1           1.1270    -3.9900    -1.5720 ha         1 Q1J       0.119000
     28 H2           3.3890    -3.0560    -1.8690 ha         1 Q1J       0.119000
     29 H3          -0.3090    -5.1310    -0.0790 ha         1 Q1J       0.113000
     30 H4          -2.6000    -6.0300     0.1850 ha         1 Q1J       0.113000
     31 H5          -4.5340    -4.4790     0.4570 ha         1 Q1J       0.113000
     32 H6          -4.1600    -2.0140     0.4520 ha         1 Q1J       0.113000
     33 H7          -1.8790    -1.1010     0.1710 ha         1 Q1J       0.113000
     34 H8           2.7490     1.9290    -3.3350 h1         1 Q1J       0.050033
     35 H9           2.6310     3.6810    -3.0140 h1         1 Q1J       0.050033
     36 H10          4.0750     2.7770    -2.5150 h1         1 Q1J       0.050033
     37 H11         -1.2820     1.5390     1.2620 ha         1 Q1J       0.161000
     38 H12         -1.9420     2.4130    -2.9040 ha         1 Q1J       0.129000
     39 H13          0.4770     2.7240    -3.2460 ha         1 Q1J       0.123000
     40 H14          0.1900    -0.8630     1.2510 ha         1 Q1J       0.130000
     41 H15          3.4120     0.8180     0.6930 hn         1 Q1J       0.505000
     42 H16          4.8130    -1.4700    -1.3280 ho         1 Q1J       0.477000
@<TRIPOS>BOND
     1     1    14 ar  
     2     1    15 ar  
     3     1    26 1   
     4     2    18 ar  
     5     2    19 ar  
     6     2    20 1   
     7     3     4 ar  
     8     3     6 1   
     9     3    19 ar  
    10     4     5 ar  
    11     4    27 1   
    12     5    18 ar  
    13     5    28 1   
    14     6     7 ar  
    15     6    11 ar  
    16     7     8 ar  
    17     7    29 1   
    18     8     9 ar  
    19     8    30 1   
    20     9    10 ar  
    21     9    31 1   
    22    10    11 ar  
    23    10    32 1   
    24    11    33 1   
    25    12    22 1   
    26    12    34 1   
    27    12    35 1   
    28    12    36 1   
    29    13    14 ar  
    30    13    17 ar  
    31    13    25 1   
    32    14    37 1   
    33    15    16 ar  
    34    15    38 1   
    35    16    17 ar  
    36    16    39 1   
    37    17    22 1   
    38    18    23 1   
    39    19    40 1   
    40    20    25 1   
    41    20    41 1   
    42    21    25 2   
    43    23    42 1   
    44    24    25 2   
@<TRIPOS>SUBSTRUCTURE
     1 Q1J         1 TEMP              0 ****  ****    0 ROOT
