@<TRIPOS>MOLECULE
Q1K
   33    35     1     0     0
SMALL
No Charge or Current Charge


@<TRIPOS>ATOM
      1 C4          13.7180    15.0390    19.5590 cc         1 Q1K      -0.174000
      2 C5          15.7220    10.8140    18.4880 c6         1 Q1K       0.182800
      3 C6          13.3940    10.8150    19.2640 c6         1 Q1K       0.182800
      4 C7          15.5250    12.2190    17.8430 c6         1 Q1K       0.209300
      5 C8          13.1650    12.2160    18.6200 c6         1 Q1K       0.209300
      6 C3          13.6450    16.4110    19.5980 cd         1 Q1K       0.001000
      7 C1          14.4150    14.3820    18.4770 cc         1 Q1K       0.573900
      8 C2          15.4780    17.2430    16.6450 cd         1 Q1K       0.356700
      9 O1          15.6800     7.8070    18.2440 o          1 Q1K      -0.525000
     10 O           13.2790     7.8070    19.0410 o          1 Q1K      -0.525000
     11 C9          15.1840     8.4930    20.7640 c3         1 Q1K      -0.381100
     12 N2          14.4520    10.0320    18.5590 n3         1 Q1K      -0.719500
     13 N4          14.4370    13.0020    18.5140 nh         1 Q1K      -0.766300
     14 N1          15.0460    14.9730    17.4570 nd         1 Q1K      -0.554800
     15 C           14.3020    17.0490    18.5110 cd         1 Q1K      -0.174000
     16 N5          14.4150    18.3420    18.2630 nc         1 Q1K      -0.066000
     17 N3          15.1590    18.4670    17.0800 nc         1 Q1K      -0.370700
     18 N           14.9430    16.3540    17.5380 na         1 Q1K       0.147000
     19 H1          13.2710    14.4450    20.3460 ha         1 Q1K       0.135000
     20 H2          16.4790    10.2760    17.8990 h1         1 Q1K       0.065200
     21 H3          16.1410    10.9570    19.4950 h1         1 Q1K       0.065200
     22 H4          12.4350    10.2760    19.2480 h1         1 Q1K       0.065200
     23 H5          13.6620    10.9620    20.3200 h1         1 Q1K       0.065200
     24 H6          16.4810    12.7600    17.8950 h1         1 Q1K       0.064200
     25 H7          15.2850    12.0880    16.7770 h1         1 Q1K       0.064200
     26 H8          12.4040    12.7510    19.2060 h1         1 Q1K       0.064200
     27 H9          12.7410    12.0710    17.6160 h1         1 Q1K       0.064200
     28 H10         13.1360    16.9540    20.3890 ha         1 Q1K       0.153000
     29 H11         16.0430    16.9570    15.7680 h5         1 Q1K       0.086800
     30 H12         14.4230     9.0240    21.3440 h1         1 Q1K       0.101700
     31 H13         15.3030     7.4660    21.1240 h1         1 Q1K       0.101700
     32 H14         16.1400     9.0240    20.7740 h1         1 Q1K       0.101700
     33 S           14.6220     8.3960    19.0700 s6         1 Q1K       1.194100
@<TRIPOS>BOND
     1     1     6 2   
     2     1     7 1   
     3     1    19 1   
     4     2     4 1   
     5     2    12 1   
     6     2    20 1   
     7     2    21 1   
     8     3     5 1   
     9     3    12 1   
    10     3    22 1   
    11     3    23 1   
    12     4    13 1   
    13     4    24 1   
    14     4    25 1   
    15     5    13 1   
    16     5    26 1   
    17     5    27 1   
    18     6    15 1   
    19     6    28 1   
    20     7    13 1   
    21     7    14 2   
    22     8    17 2   
    23     8    18 1   
    24     8    29 1   
    25     9    33 2   
    26    10    33 2   
    27    11    30 1   
    28    11    31 1   
    29    11    32 1   
    30    11    33 1   
    31    12    33 1   
    32    14    18 1   
    33    15    16 2   
    34    15    18 1   
    35    16    17 1   
@<TRIPOS>SUBSTRUCTURE
     1 Q1K         1 TEMP              0 ****  ****    0 ROOT
