@<TRIPOS>MOLECULE
Q1K
   33    35     1     0     0
SMALL
abcg2


@<TRIPOS>ATOM
      1 C4          13.4050    15.1000    19.3580 cc         1 Q1K      -0.174000
      2 C5          15.6870    10.9370    18.5160 c6         1 Q1K       0.182800
      3 C6          13.4880    10.8780    19.5250 c6         1 Q1K       0.182800
      4 C7          15.3530    12.2590    17.8510 c6         1 Q1K       0.209300
      5 C8          13.1530    12.1960    18.8550 c6         1 Q1K       0.209300
      6 C3          13.3890    16.4470    19.2850 cd         1 Q1K       0.001000
      7 C1          14.2930    14.3380    18.5050 cc         1 Q1K       0.573900
      8 C2          15.8010    17.0670    16.8470 cd         1 Q1K       0.356700
      9 O1          15.5780     8.0390    17.9860 o          1 Q1K      -0.525000
     10 O           13.2810     7.9760    18.9950 o          1 Q1K      -0.525000
     11 C9          15.3430     8.3380    20.5830 c3         1 Q1K      -0.381100
     12 N2          14.4630    10.1630    18.7070 n3         1 Q1K      -0.719500
     13 N4          14.3600    12.9780    18.6290 nh         1 Q1K      -0.766300
     14 N1          15.0930    14.9040    17.6430 nd         1 Q1K      -0.554800
     15 C           14.2680    17.0640    18.3620 cd         1 Q1K      -0.174000
     16 N5          14.5130    18.3170    18.0480 nc         1 Q1K      -0.066000
     17 N3          15.4690    18.3060    17.1030 nc         1 Q1K      -0.370700
     18 N           15.0660    16.2420    17.6230 na         1 Q1K       0.147000
     19 H1          12.7780    14.5960    20.0770 ha         1 Q1K       0.135000
     20 H2          16.3750    10.3950    17.8710 h1         1 Q1K       0.065200
     21 H3          16.1860    11.1280    19.4730 h1         1 Q1K       0.065200
     22 H4          12.5720    10.2970    19.6090 h1         1 Q1K       0.065200
     23 H5          13.8740    11.0670    20.5340 h1         1 Q1K       0.065200
     24 H6          16.2650    12.8470    17.7910 h1         1 Q1K       0.064200
     25 H7          15.0000    12.0860    16.8270 h1         1 Q1K       0.064200
     26 H8          12.4550    12.7280    19.4960 h1         1 Q1K       0.064200
     27 H9          12.6460    12.0030    17.9020 h1         1 Q1K       0.064200
     28 H10         12.7510    17.0500    19.9160 ha         1 Q1K       0.153000
     29 H11         16.5360    16.7250    16.1380 h5         1 Q1K       0.086800
     30 H12         14.6810     8.7640    21.3340 h1         1 Q1K       0.101700
     31 H13         15.4660     7.2720    20.7660 h1         1 Q1K       0.101700
     32 H14         16.3120     8.8310    20.6130 h1         1 Q1K       0.101700
     33 S           14.6240     8.5340    18.9660 s6         1 Q1K       1.194100
@<TRIPOS>BOND
     1     1     6 2   
     2     1     7 1   
     3     1    19 1   
     4     2     4 1   
     5     2    12 1   
     6     2    20 1   
     7     2    21 1   
     8     3     5 1   
     9     3    12 1   
    10     3    22 1   
    11     3    23 1   
    12     4    13 1   
    13     4    24 1   
    14     4    25 1   
    15     5    13 1   
    16     5    26 1   
    17     5    27 1   
    18     6    15 1   
    19     6    28 1   
    20     7    13 1   
    21     7    14 2   
    22     8    17 2   
    23     8    18 1   
    24     8    29 1   
    25     9    33 2   
    26    10    33 2   
    27    11    30 1   
    28    11    31 1   
    29    11    32 1   
    30    11    33 1   
    31    12    33 1   
    32    14    18 1   
    33    15    16 2   
    34    15    18 1   
    35    16    17 1   
@<TRIPOS>SUBSTRUCTURE
     1 Q1K         1 TEMP              0 ****  ****    0 ROOT
