@<TRIPOS>MOLECULE
Q1L
   59    64     1     0     0
SMALL
abcg2


@<TRIPOS>ATOM
      1 C13          0.8620    12.4210    -8.6240 cc         1 Q1L       0.524900
      2 C18         -4.2470    10.9930    -6.5340 ca         1 Q1L      -0.185000
      3 C17         -4.2010    11.5370    -5.2420 ca         1 Q1L       0.101400
      4 C16         -3.0980    12.3050    -4.8640 ca         1 Q1L      -0.051000
      5 C15         -2.0840    12.5220    -5.7730 ca         1 Q1L      -0.091000
      6 C19         -6.1380    10.5130    -5.0740 cc         1 Q1L       0.403200
      7 C20         -7.4120    10.0170    -4.4920 c3         1 Q1L      -0.121400
      8 C21         -3.2220    11.1790    -7.4500 ca         1 Q1L      -0.063000
      9 C22         -4.1810    11.9120   -11.0710 c6         1 Q1L       0.137300
     10 C23         -4.7810    10.5500   -11.3400 c3         1 Q1L       0.170600
     11 C11         -2.3660    12.9370   -10.0120 c6         1 Q1L       0.108000
     12 C12         -1.1270    12.6300    -9.2380 cd         1 Q1L       0.432800
     13 C7          -1.6720    18.2080   -17.7020 ca         1 Q1L       0.159500
     14 C6          -0.8690    17.3800   -18.4650 ca         1 Q1L       0.085000
     15 F1          -0.3200    17.8160   -19.5960 f          1 Q1L      -0.144000
     16 C5          -0.6470    16.0860   -18.0270 ca         1 Q1L       0.159500
     17 F            0.1240    15.2930   -18.7710 f          1 Q1L      -0.156000
     18 C4          -1.2090    15.6170   -16.8590 ca         1 Q1L      -0.135000
     19 C8          -2.2490    17.7670   -16.5320 ca         1 Q1L      -0.135000
     20 C3          -2.0170    16.4620   -16.0990 ca         1 Q1L      -0.055500
     21 C2          -2.6230    15.9980   -14.8550 cc         1 Q1L       0.231500
     22 N2          -3.5970    16.6930   -14.2240 nc         1 Q1L      -0.346000
     23 N1          -3.9390    16.0720   -13.1550 nd         1 Q1L      -0.194800
     24 C9          -2.3640    14.8730   -14.1080 cd         1 Q1L      -0.161000
     25 N           -3.2080    14.9700   -13.0690 na         1 Q1L       0.137800
     26 C1          -3.3830    14.0890   -11.9330 c6         1 Q1L       0.080300
     27 C10         -2.0650    13.8670   -11.1960 c6         1 Q1L       0.149300
     28 O1          -1.5890    15.1110   -10.7740 oh         1 Q1L      -0.707000
     29 O2          -2.9060    11.7280   -10.4850 os         1 Q1L      -0.422000
     30 C           -4.0490    12.7680   -12.3330 c6         1 Q1L       0.133300
     31 O           -3.2620    12.1390   -13.3110 oh         1 Q1L      -0.707000
     32 N5          -1.0920    12.2080    -7.9590 na         1 Q1L       0.054500
     33 N4           0.1800    12.0740    -7.5620 nd         1 Q1L      -0.514800
     34 N3           0.1020    12.7700    -9.6820 nc         1 Q1L      -0.711000
     35 C14         -2.1540    11.9630    -7.0550 ca         1 Q1L      -0.001200
     36 S           -5.7130    10.0990    -6.7220 ss         1 Q1L       0.042800
     37 N6          -5.2840    11.2450    -4.4500 nd         1 Q1L      -0.534100
     38 H10          1.9410    12.4210    -8.6380 h5         1 Q1L       0.069100
     39 H11         -1.2320    13.1290    -5.4990 ha         1 Q1L       0.141000
     40 H14         -8.2670    10.3370    -5.0890 hc         1 Q1L       0.063367
     41 H13         -7.4260     8.9270    -4.4580 hc         1 Q1L       0.063367
     42 H15         -7.5290    10.3990    -3.4810 hc         1 Q1L       0.063367
     43 H16         -3.2590    10.7220    -8.4270 ha         1 Q1L       0.164000
     44 H4          -4.8430    12.4490   -10.3710 h1         1 Q1L       0.060700
     45 H17         -5.7060    10.6940   -11.9130 h1         1 Q1L       0.035700
     46 H18         -4.0980     9.9640   -11.9650 h1         1 Q1L       0.035700
     47 H3          -3.0800    13.4440    -9.3420 h1         1 Q1L       0.065700
     48 H6          -1.0170    14.5950   -16.5590 ha         1 Q1L       0.148500
     49 H7          -2.8710    18.4420   -15.9590 ha         1 Q1L       0.148500
     50 H8          -1.6610    14.0690   -14.2330 h4         1 Q1L       0.181000
     51 H1          -4.0680    14.6200   -11.2650 h1         1 Q1L       0.106700
     52 H2          -1.3490    13.3600   -11.8540 h1         1 Q1L       0.084700
     53 H9          -0.6530    15.0190   -10.5620 ho         1 Q1L       0.534000
     54 H19         -5.2740     9.0060   -10.2710 ho         1 Q1L       0.514000
     55 H           -5.0540    12.9960   -12.7070 h1         1 Q1L       0.060700
     56 H5          -3.8340    11.7020   -13.9490 ho         1 Q1L       0.515000
     57 O3          -5.0290     9.9210   -10.1040 oh         1 Q1L      -0.718000
     58 H12         -3.0490    12.7320    -3.8720 ha         1 Q1L       0.140000
     59 F2          -1.8750    19.4570   -18.1230 f          1 Q1L      -0.156000
@<TRIPOS>BOND
     1     1    33 2   
     2     1    34 1   
     3     1    38 1   
     4     2     3 ar  
     5     2     8 ar  
     6     2    36 1   
     7     3     4 ar  
     8     3    37 1   
     9     4     5 ar  
    10     4    58 1   
    11     5    35 ar  
    12     5    39 1   
    13     6     7 1   
    14     6    36 1   
    15     6    37 2   
    16     7    40 1   
    17     7    41 1   
    18     7    42 1   
    19     8    35 ar  
    20     8    43 1   
    21     9    10 1   
    22     9    29 1   
    23     9    30 1   
    24     9    44 1   
    25    10    45 1   
    26    10    46 1   
    27    10    57 1   
    28    11    12 1   
    29    11    27 1   
    30    11    29 1   
    31    11    47 1   
    32    12    32 1   
    33    12    34 2   
    34    13    14 ar  
    35    13    19 ar  
    36    13    59 1   
    37    14    15 1   
    38    14    16 ar  
    39    16    17 1   
    40    16    18 ar  
    41    18    20 ar  
    42    18    48 1   
    43    19    20 ar  
    44    19    49 1   
    45    20    21 1   
    46    21    22 1   
    47    21    24 2   
    48    22    23 2   
    49    23    25 1   
    50    24    25 1   
    51    24    50 1   
    52    25    26 1   
    53    26    27 1   
    54    26    30 1   
    55    26    51 1   
    56    27    28 1   
    57    27    52 1   
    58    28    53 1   
    59    30    31 1   
    60    30    55 1   
    61    31    56 1   
    62    32    33 1   
    63    32    35 1   
    64    54    57 1   
@<TRIPOS>SUBSTRUCTURE
     1 Q1L         1 TEMP              0 ****  ****    0 ROOT
