@<TRIPOS>MOLECULE
Q1L
   59    64     1     0     0
SMALL
No Charge or Current Charge


@<TRIPOS>ATOM
      1 C13          1.0140    12.1390    -8.7740 cc         1 Q1L       0.524900
      2 C18         -4.0670    10.8830    -6.4580 ca         1 Q1L      -0.185000
      3 C17         -4.2190    11.8160    -5.4520 ca         1 Q1L       0.101400
      4 C16         -3.2430    12.8080    -5.2660 ca         1 Q1L      -0.051000
      5 C15         -2.1190    12.8400    -6.1150 ca         1 Q1L      -0.091000
      6 C19         -6.0550    10.6510    -5.1330 cc         1 Q1L       0.403200
      7 C20         -7.3620    10.2310    -4.5270 c3         1 Q1L      -0.121400
      8 C21         -2.9580    10.8890    -7.3180 ca         1 Q1L      -0.063000
      9 C22         -4.2680    11.7990   -11.0820 c6         1 Q1L       0.137300
     10 C23         -4.9060    10.4090   -11.4150 c3         1 Q1L       0.170600
     11 C11         -2.3340    12.7890    -9.9820 c6         1 Q1L       0.108000
     12 C12         -1.0280    12.4290    -9.2730 cd         1 Q1L       0.432800
     13 C7          -1.7140    18.2270   -17.6880 ca         1 Q1L       0.159500
     14 C6          -0.7340    17.4100   -18.2760 ca         1 Q1L       0.085000
     15 F1          -0.0910    17.8140   -19.3980 f          1 Q1L      -0.144000
     16 C5          -0.4310    16.1690   -17.6930 ca         1 Q1L       0.159500
     17 F            0.5040    15.3660   -18.2510 f          1 Q1L      -0.156000
     18 C4          -1.0970    15.7460   -16.5300 ca         1 Q1L      -0.135000
     19 C8          -2.3830    17.8080   -16.5260 ca         1 Q1L      -0.135000
     20 C3          -2.0780    16.5660   -15.9220 ca         1 Q1L      -0.055500
     21 C2          -2.8040    16.1370   -14.7130 cc         1 Q1L       0.231500
     22 N2          -3.8930    16.7670   -14.1840 nc         1 Q1L      -0.346000
     23 N1          -4.2570    16.1030   -13.1150 nd         1 Q1L      -0.194800
     24 C9          -2.4420    15.0510   -13.9800 cd         1 Q1L      -0.161000
     25 N           -3.3810    15.0520   -12.9690 na         1 Q1L       0.137800
     26 C1          -3.4920    14.0760   -11.8560 c6         1 Q1L       0.080300
     27 C10         -2.1260    13.8130   -11.1450 c6         1 Q1L       0.149300
     28 O1          -1.5610    15.0450   -10.6460 oh         1 Q1L      -0.707000
     29 O2          -2.9620    11.5810   -10.4890 os         1 Q1L      -0.422000
     30 C           -4.1410    12.7370   -12.3290 c6         1 Q1L       0.133300
     31 O           -3.3430    12.1320   -13.3750 oh         1 Q1L      -0.707000
     32 N5          -0.8610    11.9340    -7.9870 na         1 Q1L       0.054500
     33 N4           0.4450    11.7830    -7.6350 nd         1 Q1L      -0.514800
     34 N3           0.1880    12.5530    -9.7900 nc         1 Q1L      -0.711000
     35 C14         -1.9730    11.8850    -7.1470 ca         1 Q1L      -0.001200
     36 S           -5.3980     9.7410    -6.5130 ss         1 Q1L       0.042800
     37 N6          -5.3630    11.7020    -4.6710 nd         1 Q1L      -0.534100
     38 H10          2.0870    12.1460    -8.9350 h5         1 Q1L       0.069100
     39 H11         -1.3610    13.6080    -5.9730 ha         1 Q1L       0.141000
     40 H14         -8.2000    10.5750    -5.1440 hc         1 Q1L       0.063367
     41 H13         -7.4210     9.1400    -4.4480 hc         1 Q1L       0.063367
     42 H15         -7.4850    10.6500    -3.5210 hc         1 Q1L       0.063367
     43 H16         -2.8670    10.1430    -8.1060 ha         1 Q1L       0.164000
     44 H4          -4.9150    12.2830   -10.3360 h1         1 Q1L       0.060700
     45 H17         -5.8870    10.5860   -11.8760 h1         1 Q1L       0.035700
     46 H18         -4.2780     9.9090   -12.1640 h1         1 Q1L       0.035700
     47 H3          -3.0120    13.2410    -9.2440 h1         1 Q1L       0.065700
     48 H6          -0.8420    14.7750   -16.1160 ha         1 Q1L       0.148500
     49 H7          -3.1380    18.4610   -16.0940 ha         1 Q1L       0.148500
     50 H8          -1.6510    14.3210   -14.0790 h4         1 Q1L       0.181000
     51 H1          -4.1650    14.5230   -11.1110 h1         1 Q1L       0.106700
     52 H2          -1.4430    13.3550   -11.8780 h1         1 Q1L       0.084700
     53 H9          -0.6080    14.8620   -10.4540 ho         1 Q1L       0.534000
     54 H19         -5.3870     8.6930   -10.5790 ho         1 Q1L       0.514000
     55 H           -5.1510    12.9610   -12.7050 h1         1 Q1L       0.060700
     56 H5          -3.9400    11.5710   -13.9220 ho         1 Q1L       0.515000
     57 O3          -5.0530     9.5630   -10.2580 oh         1 Q1L      -0.718000
     58 H12         -3.3560    13.5440    -4.4740 ha         1 Q1L       0.140000
     59 F2          -2.0230    19.4230   -18.2390 f          1 Q1L      -0.156000
@<TRIPOS>BOND
     1     1    33 2   
     2     1    34 1   
     3     1    38 1   
     4     2     3 ar  
     5     2     8 ar  
     6     2    36 1   
     7     3     4 ar  
     8     3    37 1   
     9     4     5 ar  
    10     4    58 1   
    11     5    35 ar  
    12     5    39 1   
    13     6     7 1   
    14     6    36 1   
    15     6    37 2   
    16     7    40 1   
    17     7    41 1   
    18     7    42 1   
    19     8    35 ar  
    20     8    43 1   
    21     9    10 1   
    22     9    29 1   
    23     9    30 1   
    24     9    44 1   
    25    10    45 1   
    26    10    46 1   
    27    10    57 1   
    28    11    12 1   
    29    11    27 1   
    30    11    29 1   
    31    11    47 1   
    32    12    32 1   
    33    12    34 2   
    34    13    14 ar  
    35    13    19 ar  
    36    13    59 1   
    37    14    15 1   
    38    14    16 ar  
    39    16    17 1   
    40    16    18 ar  
    41    18    20 ar  
    42    18    48 1   
    43    19    20 ar  
    44    19    49 1   
    45    20    21 1   
    46    21    22 1   
    47    21    24 2   
    48    22    23 2   
    49    23    25 1   
    50    24    25 1   
    51    24    50 1   
    52    25    26 1   
    53    26    27 1   
    54    26    30 1   
    55    26    51 1   
    56    27    28 1   
    57    27    52 1   
    58    28    53 1   
    59    30    31 1   
    60    30    55 1   
    61    31    56 1   
    62    32    33 1   
    63    32    35 1   
    64    54    57 1   
@<TRIPOS>SUBSTRUCTURE
     1 Q1L         1 TEMP              0 ****  ****    0 ROOT
