@<TRIPOS>MOLECULE
Q1M
   34    35     1     0     0
SMALL
bcc


@<TRIPOS>ATOM
      1 C18         -1.7740     0.6050     2.0090 ca         1 Q1M      -0.050000
      2 C16         -2.3490     1.7900     1.5770 ca         1 Q1M      -0.053600
      3 C15         -2.7620     1.9420     0.2670 ca         1 Q1M      -0.028000
      4 C20          1.1420    -2.1070    -0.9600 ca         1 Q1M       0.262100
      5 C22          0.1280    -4.0730    -1.8070 c3         1 Q1M       0.133700
      6 C23          1.6400    -1.7320    -2.2060 ca         1 Q1M      -0.233000
      7 C24          2.3030    -0.5260    -2.3640 ca         1 Q1M      -0.014000
      8 C11         -2.6090     0.8990    -0.6360 ca         1 Q1M      -0.269600
      9 C02          2.4760     0.3230    -1.2830 ca         1 Q1M      -0.081900
     10 C03          1.9890    -0.0240    -0.0340 ca         1 Q1M       0.039000
     11 C04          1.3310    -1.2340     0.1200 ca         1 Q1M      -0.330500
     12 C12         -3.0600     1.0450    -2.0680 c          1 Q1M       0.939200
     13 S05          0.6720    -1.6450     1.7150 sy         1 Q1M       1.286200
     14 O06          1.0140    -0.5530     2.6080 o          1 Q1M      -0.625300
     15 C08         -1.5910    -0.4350     1.1120 ca         1 Q1M      -0.029400
     16 C09         -2.0150    -0.3070    -0.2210 ca         1 Q1M       0.213100
     17 O10         -1.8680    -1.3200    -1.0550 oh         1 Q1M      -0.613100
     18 O13         -2.8820     0.0170    -2.7970 o          1 Q1M      -0.785800
     19 O14         -3.5560     2.1070    -2.4400 o          1 Q1M      -0.785800
     20 CL7         -2.5610     3.0930     2.7080 cl         1 Q1M      -0.155400
     21 O19          1.0420    -2.9990     2.0790 o          1 Q1M      -0.625300
     22 H1          -1.4750     0.4800     3.0410 ha         1 Q1M       0.151000
     23 H2          -3.2110     2.8680    -0.0670 ha         1 Q1M       0.159000
     24 H3          -0.4940    -3.5380    -2.5270 h1         1 Q1M       0.047700
     25 H4           1.0060    -4.4760    -2.3150 h1         1 Q1M       0.047700
     26 H5          -0.4440    -4.8930    -1.3830 h1         1 Q1M       0.047700
     27 H6           1.5210    -2.3710    -3.0690 ha         1 Q1M       0.136000
     28 H7           2.6790    -0.2610    -3.3440 ha         1 Q1M       0.139000
     29 H8           2.1130     0.6360     0.8130 ha         1 Q1M       0.174000
     30 H9          -1.3080    -2.4750     1.0710 hn         1 Q1M       0.440800
     31 H10         -2.2670    -0.9450    -1.9440 ho         1 Q1M       0.520000
     32 N07         -0.9820    -1.6390     1.5480 nu         1 Q1M      -0.634500
     33 BR1          3.3730     1.9660    -1.5100 br         1 Q1M      -0.110100
     34 O21          0.4920    -3.2400    -0.7170 os         1 Q1M      -0.310900
@<TRIPOS>BOND
     1     1     2 ar  
     2     1    15 ar  
     3     1    22 1   
     4     2     3 ar  
     5     2    20 1   
     6     3     8 ar  
     7     3    23 1   
     8     4     6 ar  
     9     4    11 ar  
    10     4    34 1   
    11     5    24 1   
    12     5    25 1   
    13     5    26 1   
    14     5    34 1   
    15     6     7 ar  
    16     6    27 1   
    17     7     9 ar  
    18     7    28 1   
    19     8    12 1   
    20     8    16 ar  
    21     9    10 ar  
    22     9    33 1   
    23    10    11 ar  
    24    10    29 1   
    25    11    13 1   
    26    12    18 1   
    27    12    19 1   
    28    13    14 2   
    29    13    21 2   
    30    13    32 1   
    31    15    16 ar  
    32    15    32 1   
    33    16    17 1   
    34    17    31 1   
    35    30    32 1   
@<TRIPOS>SUBSTRUCTURE
     1 Q1M         1 TEMP              0 ****  ****    0 ROOT
