@<TRIPOS>MOLECULE
Q1M
   34    35     1     0     0
SMALL
No Charge or Current Charge


@<TRIPOS>ATOM
      1 C18         -1.1430     0.8530     1.2370 ca         1 Q1M      -0.032000
      2 C16         -1.7270     1.9870     0.6550 ca         1 Q1M       0.038000
      3 C15         -2.7590     1.8530    -0.2860 ca         1 Q1M      -0.010000
      4 C20          1.3270    -1.8810    -0.8760 ca         1 Q1M       0.262100
      5 C22          0.0880    -3.4830    -2.2960 c3         1 Q1M       0.156900
      6 C23          2.0610    -1.3870    -1.9790 ca         1 Q1M      -0.215000
      7 C24          2.9760    -0.3350    -1.8110 ca         1 Q1M       0.004000
      8 C11         -3.2310     0.5740    -0.6660 ca         1 Q1M      -0.269600
      9 C02          3.1620     0.2330    -0.5420 ca         1 Q1M      -0.081900
     10 C03          2.4400    -0.2500     0.5610 ca         1 Q1M       0.057000
     11 C04          1.5270    -1.3110     0.3950 ca         1 Q1M      -0.330500
     12 C12         -4.3440     0.4580    -1.6830 c          1 Q1M       0.728600
     13 S05          0.5980    -1.8860     1.8090 sy         1 Q1M       1.144600
     14 O06          0.8690    -1.0460     2.9790 o          1 Q1M      -0.554500
     15 C08         -1.5880    -0.4330     0.8780 ca         1 Q1M       0.109000
     16 C09         -2.6350    -0.5650    -0.0740 ca         1 Q1M       0.213100
     17 O10         -3.0630    -1.8150    -0.4320 oh         1 Q1M      -0.652100
     18 O13         -4.7290    -0.6620    -1.9910 o          1 Q1M      -0.680500
     19 O14         -4.8130     1.4830    -2.1530 o          1 Q1M      -0.680500
     20 Cl7         -1.1590     3.5890     1.1080 cl         1 Q1M      -0.247000
     21 O19          0.6440    -3.3480     1.8800 o          1 Q1M      -0.554500
     22 H1          -0.3510     0.9850     1.9670 ha         1 Q1M       0.133000
     23 H2          -3.1900     2.7540    -0.7180 ha         1 Q1M       0.141000
     24 H3          -0.3010    -2.7240    -2.9870 h1         1 Q1M       0.047700
     25 H4           0.9750    -3.9490    -2.7440 h1         1 Q1M       0.047700
     26 H5          -0.6790    -4.2580    -2.1780 h1         1 Q1M       0.047700
     27 H6           1.9340    -1.8020    -2.9730 ha         1 Q1M       0.118000
     28 H7           3.5360     0.0420    -2.6640 ha         1 Q1M       0.121000
     29 H8           2.5970     0.2070     1.5370 ha         1 Q1M       0.156000
     30 H9          -1.3130    -2.4470     0.9750 hn         1 Q1M       0.496000
     31 H10         -3.7890    -1.6430    -1.0990 ho         1 Q1M       0.559000
     32 N07         -1.0110    -1.5920     1.4270 nu         1 Q1M      -0.828100
     33 Br1          4.3990     1.6740    -0.3150 br         1 Q1M      -0.110100
     34 O21          0.4050    -2.8990    -1.0210 os         1 Q1M      -0.334100
@<TRIPOS>BOND
     1     1     2 ar  
     2     1    15 ar  
     3     1    22 1   
     4     2     3 ar  
     5     2    20 1   
     6     3     8 ar  
     7     3    23 1   
     8     4     6 ar  
     9     4    11 ar  
    10     4    34 1   
    11     5    24 1   
    12     5    25 1   
    13     5    26 1   
    14     5    34 1   
    15     6     7 ar  
    16     6    27 1   
    17     7     9 ar  
    18     7    28 1   
    19     8    12 1   
    20     8    16 ar  
    21     9    10 ar  
    22     9    33 1   
    23    10    11 ar  
    24    10    29 1   
    25    11    13 1   
    26    12    18 1   
    27    12    19 1   
    28    13    14 2   
    29    13    21 2   
    30    13    32 1   
    31    15    16 ar  
    32    15    32 1   
    33    16    17 1   
    34    17    31 1   
    35    30    32 1   
@<TRIPOS>SUBSTRUCTURE
     1 Q1M         1 TEMP              0 ****  ****    0 ROOT
