@<TRIPOS>MOLECULE
Q1O
   88    92     1     0     0
SMALL
No Charge or Current Charge


@<TRIPOS>ATOM
      1 O10         17.2280     9.4770     4.9770 os         1 Q1O      -0.718800
      2 C02         16.2610     4.7650     3.5860 c5         1 Q1O       0.128300
      3 C03         14.8440     5.3760     3.4010 c5         1 Q1O       0.108300
      4 C05         15.1560     6.8810     3.7060 c5         1 Q1O       0.119300
      5 C06         15.1790     7.2060     5.2300 c3         1 Q1O       0.217600
      6 C14         20.4570    10.5260     3.4940 c3         1 Q1O       0.227600
      7 C15         21.5580    10.9890     4.4910 c5         1 Q1O       0.153300
      8 C17         23.6430    10.4200     5.4020 c5         1 Q1O       0.270300
      9 C19         25.5880     9.9210     3.8050 cc         1 Q1O       0.407400
     10 C21         26.3950     8.1210     4.7210 cd         1 Q1O       0.109500
     11 C22         25.3180     8.5180     5.4290 cc         1 Q1O       0.225000
     12 C24         25.4880     6.7050     6.8710 cc         1 Q1O       0.891100
     13 C27         27.0970     6.8940     5.1570 c          1 Q1O       0.656000
     14 C29         23.6400    11.9620     5.0530 c5         1 Q1O       0.084300
     15 C31         22.5900    11.9890     3.9050 c5         1 Q1O       0.149300
     16 C36         17.1060     5.8380     2.8300 c5         1 Q1O       0.280300
     17 C38         19.0690     6.6730     4.1760 ca         1 Q1O       0.011700
     18 C39         20.4520     6.8400     4.3710 ca         1 Q1O      -0.118000
     19 C40         19.4750     5.1370     2.4040 ca         1 Q1O      -0.039000
     20 C41         20.8650     5.2850     2.5750 ca         1 Q1O      -0.118000
     21 C42         21.3680     6.1600     3.5550 ca         1 Q1O       0.004700
     22 C43         22.8730     6.3550     3.7400 c3         1 Q1O       0.161000
     23 C47         23.7550     2.4060     6.7060 c3         1 Q1O       0.063000
     24 C48         22.5070     1.4900     6.6360 c3         1 Q1O       0.259000
     25 C54         23.4480     7.1640     2.5530 c3         1 Q1O      -0.105100
     26 F49         21.3660     2.2110     6.5460 f          1 Q1O      -0.116000
     27 F50         22.4230     0.7180     7.7430 f          1 Q1O      -0.116000
     28 F51         22.5680     0.6700     5.5620 f          1 Q1O      -0.116000
     29 N18         24.7600     9.6290     4.8830 na         1 Q1O      -0.198500
     30 N20         26.5840     9.0330     3.6810 nd         1 Q1O      -0.609000
     31 N23         24.7980     7.7940     6.4920 na         1 Q1O      -0.915200
     32 N25         24.9300     6.0040     7.7920 nv         1 Q1O      -1.057200
     33 N26         26.5350     6.2570     6.2660 nd         1 Q1O      -0.797100
     34 N37         18.5430     5.8760     3.1470 na         1 Q1O       0.014300
     35 N44         23.5640     5.0670     4.0460 n          1 Q1O      -0.423800
     36 N46         23.9450     3.2480     5.5080 ns         1 Q1O      -0.524900
     37 O01         16.3180     3.4570     3.0000 oh         1 Q1O      -0.707000
     38 O04         14.3710     5.1510     2.0560 oh         1 Q1O      -0.712000
     39 O07         15.0440     8.6250     5.4190 os         1 Q1O      -0.585400
     40 O09         15.6610    10.8120     6.5170 o          1 Q1O      -0.828000
     41 O12         18.0190    11.8650     4.6570 o          1 Q1O      -0.850500
     42 O13         19.4160     9.7970     4.1700 os         1 Q1O      -0.603400
     43 O16         22.4080     9.8810     4.8690 os         1 Q1O      -0.432000
     44 O28         28.0900     6.4220     4.6210 o          1 Q1O      -0.557100
     45 O30         23.1980    12.7900     6.1500 oh         1 Q1O      -0.675000
     46 O32         22.0840    13.3130     3.7230 oh         1 Q1O      -0.661000
     47 O33         18.9800    10.5590     6.5500 o          1 Q1O      -0.850500
     48 O34         16.6740     8.6990     7.3590 o          1 Q1O      -0.828000
     49 O35         16.4690     7.1090     3.1210 os         1 Q1O      -0.398000
     50 O52         22.7180     5.0190     6.1940 o          1 Q1O      -0.629100
     51 P08         16.2010     9.4640     6.1680 p5         1 Q1O       1.459800
     52 P11         18.3900    10.5180     5.1820 p5         1 Q1O       1.468800
     53 H1          16.5450     4.7260     4.6480 h1         1 Q1O       0.068700
     54 H2          14.1330     4.9580     4.1300 h1         1 Q1O       0.070700
     55 H3          14.4230     7.5450     3.2280 h1         1 Q1O       0.108700
     56 H4          14.3370     6.6950     5.7140 h1         1 Q1O       0.031700
     57 H5          16.1040     6.8140     5.6750 h1         1 Q1O       0.031700
     58 H6          20.9200     9.8980     2.7210 h1         1 Q1O       0.037700
     59 H7          20.0400    11.4080     2.9900 h1         1 Q1O       0.037700
     60 H8          21.0920    11.4110     5.3900 h1         1 Q1O       0.111700
     61 H9          23.6630    10.2910     6.4900 h2         1 Q1O       0.063700
     62 H10         25.4220    10.7770     3.1620 h5         1 Q1O       0.069100
     63 H11         24.6230    12.3040     4.7010 h1         1 Q1O       0.049700
     64 H12         23.0120    11.6060     2.9650 h1         1 Q1O       0.033700
     65 H13         17.0370     5.6590     1.7500 h2         1 Q1O       0.107700
     66 H14         18.3600     7.2110     4.8030 h4         1 Q1O       0.215000
     67 H15         20.8030     7.5090     5.1540 ha         1 Q1O       0.176500
     68 H16         19.0810     4.4450     1.6550 h4         1 Q1O       0.215000
     69 H17         21.5470     4.7140     1.9480 ha         1 Q1O       0.176500
     70 H18         23.0100     6.9970     4.6210 h1         1 Q1O       0.113700
     71 H19         24.6460     1.7770     6.8360 h1         1 Q1O       0.085700
     72 H20         23.6750     3.0460     7.5940 h1         1 Q1O       0.085700
     73 H21         25.4250     4.4790     3.2020 h1         1 Q1O       0.049367
     74 H22         24.0930     3.3090     2.9530 h1         1 Q1O       0.049367
     75 H23         24.1510     4.7810     1.9910 h1         1 Q1O       0.049367
     76 H24         24.5370     7.2510     2.6310 hc         1 Q1O       0.058033
     77 H25         23.2030     6.7040     1.5890 hc         1 Q1O       0.058033
     78 H26         23.0270     8.1770     2.5510 hc         1 Q1O       0.058033
     79 H27         23.9720     8.0580     7.0050 hn         1 Q1O       0.513000
     80 H28         25.4970     5.1910     7.9730 hn         1 Q1O       0.503000
     81 H29         23.9860     5.7500     7.5170 hn         1 Q1O       0.503000
     82 H30         24.4830     2.8750     4.7370 hn         1 Q1O       0.337500
     83 H31         15.5970     3.4740     2.3200 ho         1 Q1O       0.521000
     84 H32         13.4590     5.5260     1.9900 ho         1 Q1O       0.514000
     85 H33         23.9260    12.8260     6.8160 ho         1 Q1O       0.494000
     86 H34         22.2270    13.7370     4.6050 ho         1 Q1O       0.500000
     87 C45         23.3570     4.4720     5.3090 c          1 Q1O       0.643100
     88 C53         24.3530     4.3740     2.9870 c3         1 Q1O       0.082300
@<TRIPOS>BOND
     1     1    51 1   
     2     1    52 1   
     3     2     3 1   
     4     2    16 1   
     5     2    37 1   
     6     2    53 1   
     7     3     4 1   
     8     3    38 1   
     9     3    54 1   
    10     4     5 1   
    11     4    49 1   
    12     4    55 1   
    13     5    39 1   
    14     5    56 1   
    15     5    57 1   
    16     6     7 1   
    17     6    42 1   
    18     6    58 1   
    19     6    59 1   
    20     7    15 1   
    21     7    43 1   
    22     7    60 1   
    23     8    14 1   
    24     8    29 1   
    25     8    43 1   
    26     8    61 1   
    27     9    29 1   
    28     9    30 2   
    29     9    62 1   
    30    10    11 2   
    31    10    13 1   
    32    10    30 1   
    33    11    29 1   
    34    11    31 1   
    35    12    31 1   
    36    12    32 1   
    37    12    33 2   
    38    13    33 1   
    39    13    44 2   
    40    14    15 1   
    41    14    45 1   
    42    14    63 1   
    43    15    46 1   
    44    15    64 1   
    45    16    34 1   
    46    16    49 1   
    47    16    65 1   
    48    17    18 ar  
    49    17    34 2   
    50    17    66 1   
    51    18    21 ar  
    52    18    67 1   
    53    19    20 ar  
    54    19    34 1   
    55    19    68 1   
    56    20    21 ar  
    57    20    69 1   
    58    21    22 1   
    59    22    25 1   
    60    22    35 1   
    61    22    70 1   
    62    23    24 1   
    63    23    36 1   
    64    23    71 1   
    65    23    72 1   
    66    24    26 1   
    67    24    27 1   
    68    24    28 1   
    69    25    76 1   
    70    25    77 1   
    71    25    78 1   
    72    31    79 1   
    73    32    80 1   
    74    32    81 1   
    75    35    87 1   
    76    35    88 1   
    77    36    82 1   
    78    36    87 1   
    79    37    83 1   
    80    38    84 1   
    81    39    51 1   
    82    40    51 1   
    83    41    52 1   
    84    42    52 1   
    85    45    85 1   
    86    46    86 1   
    87    47    52 1   
    88    48    51 1   
    89    50    87 2   
    90    73    88 1   
    91    74    88 1   
    92    75    88 1   
@<TRIPOS>SUBSTRUCTURE
     1 Q1O         1 TEMP              0 ****  ****    0 ROOT
