@<TRIPOS>MOLECULE
Q1O
   88    92     1     0     0
SMALL
abcg2


@<TRIPOS>ATOM
      1 O10         17.2970    10.1030     5.0700 os         1 Q1O      -0.718800
      2 C02         16.5860     4.5490     3.9080 c5         1 Q1O       0.128300
      3 C03         15.1250     4.9230     4.1840 c5         1 Q1O       0.108300
      4 C05         15.1010     6.3800     3.7200 c5         1 Q1O       0.119300
      5 C06         15.5050     7.3820     4.7830 c3         1 Q1O       0.217600
      6 C14         20.8470    10.9610     4.2560 c3         1 Q1O       0.227600
      7 C15         21.7900    10.8740     5.4260 c5         1 Q1O       0.153300
      8 C17         23.5930     9.5930     6.1750 c5         1 Q1O       0.270300
      9 C19         24.9460     8.9360     4.1260 cc         1 Q1O       0.407400
     10 C21         26.0290     7.2420     4.8680 cd         1 Q1O       0.109500
     11 C22         25.2280     7.6800     5.8970 cc         1 Q1O       0.225000
     12 C24         26.0620     6.0090     7.2840 cc         1 Q1O       0.891100
     13 C27         26.8790     6.0900     5.0680 c          1 Q1O       0.656000
     14 C29         24.0090    11.0840     6.2730 c5         1 Q1O       0.084300
     15 C31         23.0260    11.7560     5.2970 c5         1 Q1O       0.149300
     16 C36         16.8690     5.3250     2.6100 c5         1 Q1O       0.280300
     17 C38         18.6250     7.0600     2.8450 ca         1 Q1O       0.011700
     18 C39         19.9470     7.4270     2.9310 ca         1 Q1O      -0.118000
     19 C40         19.2450     4.8530     2.3440 ca         1 Q1O      -0.039000
     20 C41         20.5760     5.1780     2.4300 ca         1 Q1O      -0.118000
     21 C42         20.9530     6.4830     2.7500 ca         1 Q1O       0.004700
     22 C43         22.4030     6.8950     2.8720 c3         1 Q1O       0.161000
     23 C47         23.6140     3.8270     6.4140 c3         1 Q1O       0.063000
     24 C48         22.6780     2.6330     6.4880 c3         1 Q1O       0.259000
     25 C54         22.8720     7.5220     1.5590 c3         1 Q1O      -0.105100
     26 F49         21.4400     2.9060     6.0270 f          1 Q1O      -0.116000
     27 F50         22.5450     2.2130     7.7660 f          1 Q1O      -0.116000
     28 F51         23.1330     1.5820     5.7700 f          1 Q1O      -0.116000
     29 N18         24.5300     8.7610     5.4390 na         1 Q1O      -0.198500
     30 N20         25.8310     8.0490     3.7600 nd         1 Q1O      -0.609000
     31 N23         25.2140     7.0770     7.1160 na         1 Q1O      -0.915200
     32 N25         26.0850     5.4540     8.5120 nv         1 Q1O      -1.057200
     33 N26         26.8390     5.5380     6.3370 nd         1 Q1O      -0.797100
     34 N37         18.2960     5.7850     2.5730 na         1 Q1O       0.014300
     35 N44         23.2410     5.7860     3.3400 n          1 Q1O      -0.423800
     36 N46         23.7650     4.3300     5.0790 ns         1 Q1O      -0.524900
     37 O01         16.8700     3.1860     3.7170 oh         1 Q1O      -0.707000
     38 O04         14.2950     4.0990     3.3810 oh         1 Q1O      -0.712000
     39 O07         15.3500     8.6880     4.2370 os         1 Q1O      -0.585400
     40 O09         15.0510    11.1480     4.4090 o          1 Q1O      -0.828000
     41 O12         17.9850    10.1260     2.6100 o          1 Q1O      -0.850500
     42 O13         19.6410    10.2590     4.5590 os         1 Q1O      -0.603400
     43 O16         22.3280     9.5460     5.5350 os         1 Q1O      -0.432000
     44 O28         27.6000     5.6040     4.1880 o          1 Q1O      -0.557100
     45 O30         23.7760    11.5850     7.5760 oh         1 Q1O      -0.675000
     46 O32         22.7030    13.0980     5.5770 oh         1 Q1O      -0.661000
     47 O33         18.1870    12.2800     4.0220 o          1 Q1O      -0.850500
     48 O34         15.3430     9.7230     6.5690 o          1 Q1O      -0.828000
     49 O35         16.0110     6.4140     2.5790 os         1 Q1O      -0.398000
     50 O52         22.1970     5.9510     5.3580 o          1 Q1O      -0.629100
     51 P08         15.6660    10.0050     5.1400 p5         1 Q1O       1.459800
     52 P11         18.2310    10.7900     3.9260 p5         1 Q1O       1.468800
     53 H1          17.2000     4.9660     4.7100 h1         1 Q1O       0.068700
     54 H2          14.8760     4.8250     5.2430 h1         1 Q1O       0.070700
     55 H3          14.1200     6.6510     3.3310 h1         1 Q1O       0.108700
     56 H4          14.8520     7.2560     5.6500 h1         1 Q1O       0.031700
     57 H5          16.5380     7.2230     5.1080 h1         1 Q1O       0.031700
     58 H6          21.3180    10.5290     3.3680 h1         1 Q1O       0.037700
     59 H7          20.6300    12.0140     4.0670 h1         1 Q1O       0.037700
     60 H8          21.2520    11.1330     6.3450 h1         1 Q1O       0.111700
     61 H9          23.5200     9.1830     7.1830 h2         1 Q1O       0.063700
     62 H10         24.5410     9.7230     3.5110 h5         1 Q1O       0.069100
     63 H11         25.0510    11.2220     5.9810 h1         1 Q1O       0.049700
     64 H12         23.4290    11.6580     4.2830 h1         1 Q1O       0.033700
     65 H13         16.7410     4.6900     1.7320 h2         1 Q1O       0.107700
     66 H14         17.8230     7.7680     2.9820 h4         1 Q1O       0.215000
     67 H15         20.1700     8.4540     3.1720 ha         1 Q1O       0.176500
     68 H16         18.8960     3.8580     2.1130 h4         1 Q1O       0.215000
     69 H17         21.3110     4.4050     2.2640 ha         1 Q1O       0.176500
     70 H18         22.4410     7.6690     3.6390 h1         1 Q1O       0.113700
     71 H19         24.5770     3.5040     6.8080 h1         1 Q1O       0.085700
     72 H20         23.2090     4.6030     7.0610 h1         1 Q1O       0.085700
     73 H21         25.1980     5.1550     2.8460 h1         1 Q1O       0.049367
     74 H22         23.9040     4.0160     2.3930 h1         1 Q1O       0.049367
     75 H23         24.1490     5.4960     1.4800 h1         1 Q1O       0.049367
     76 H24         23.9210     7.8080     1.6250 hc         1 Q1O       0.058033
     77 H25         22.7330     6.8510     0.7110 hc         1 Q1O       0.058033
     78 H26         22.2810     8.4190     1.3780 hc         1 Q1O       0.058033
     79 H27         24.6140     7.3840     7.8690 hn         1 Q1O       0.513000
     80 H28         26.5780     4.5820     8.6120 hn         1 Q1O       0.503000
     81 H29         25.3710     5.6650     9.1900 hn         1 Q1O       0.503000
     82 H30         24.4840     3.9240     4.5050 hn         1 Q1O       0.337500
     83 H31         17.0190     2.7740     4.5770 ho         1 Q1O       0.521000
     84 H32         13.3760     4.3510     3.5370 ho         1 Q1O       0.514000
     85 H33         24.4570    11.2340     8.1640 ho         1 Q1O       0.494000
     86 H34         23.4470    13.6590     5.3240 ho         1 Q1O       0.500000
     87 C45         23.0240     5.3910     4.6300 c          1 Q1O       0.643100
     88 C53         24.1740     5.0720     2.4760 c3         1 Q1O       0.082300
@<TRIPOS>BOND
     1     1    51 1   
     2     1    52 1   
     3     2     3 1   
     4     2    16 1   
     5     2    37 1   
     6     2    53 1   
     7     3     4 1   
     8     3    38 1   
     9     3    54 1   
    10     4     5 1   
    11     4    49 1   
    12     4    55 1   
    13     5    39 1   
    14     5    56 1   
    15     5    57 1   
    16     6     7 1   
    17     6    42 1   
    18     6    58 1   
    19     6    59 1   
    20     7    15 1   
    21     7    43 1   
    22     7    60 1   
    23     8    14 1   
    24     8    29 1   
    25     8    43 1   
    26     8    61 1   
    27     9    29 1   
    28     9    30 2   
    29     9    62 1   
    30    10    11 2   
    31    10    13 1   
    32    10    30 1   
    33    11    29 1   
    34    11    31 1   
    35    12    31 1   
    36    12    32 1   
    37    12    33 2   
    38    13    33 1   
    39    13    44 2   
    40    14    15 1   
    41    14    45 1   
    42    14    63 1   
    43    15    46 1   
    44    15    64 1   
    45    16    34 1   
    46    16    49 1   
    47    16    65 1   
    48    17    18 ar  
    49    17    34 2   
    50    17    66 1   
    51    18    21 ar  
    52    18    67 1   
    53    19    20 ar  
    54    19    34 1   
    55    19    68 1   
    56    20    21 ar  
    57    20    69 1   
    58    21    22 1   
    59    22    25 1   
    60    22    35 1   
    61    22    70 1   
    62    23    24 1   
    63    23    36 1   
    64    23    71 1   
    65    23    72 1   
    66    24    26 1   
    67    24    27 1   
    68    24    28 1   
    69    25    76 1   
    70    25    77 1   
    71    25    78 1   
    72    31    79 1   
    73    32    80 1   
    74    32    81 1   
    75    35    87 1   
    76    35    88 1   
    77    36    82 1   
    78    36    87 1   
    79    37    83 1   
    80    38    84 1   
    81    39    51 1   
    82    40    51 1   
    83    41    52 1   
    84    42    52 1   
    85    45    85 1   
    86    46    86 1   
    87    47    52 1   
    88    48    51 1   
    89    50    87 2   
    90    73    88 1   
    91    74    88 1   
    92    75    88 1   
@<TRIPOS>SUBSTRUCTURE
     1 Q1O         1 TEMP              0 ****  ****    0 ROOT
