@<TRIPOS>MOLECULE
Q1P
   38    40     1     0     0
SMALL
abcg2


@<TRIPOS>ATOM
      1 C06          6.8900    -0.5010    15.7820 ca         1 Q1P      -0.131300
      2 C18          1.4980     3.4530    16.7150 ca         1 Q1P       0.012000
      3 C16          2.8670     3.3070    16.9270 ca         1 Q1P      -0.048900
      4 C15          3.3700     2.1810    17.5440 ca         1 Q1P       0.060000
      5 C19          0.6290     2.4650    17.1380 ca         1 Q1P      -0.175000
      6 C20          1.1030     1.3080    17.7630 ca         1 Q1P       0.237100
      7 C24          4.1470    -0.1800    15.1610 ca         1 Q1P       0.156100
      8 C11          4.5450    -0.8070    16.3500 ca         1 Q1P       0.103000
      9 C03          5.1130     0.2990    14.2770 ca         1 Q1P      -0.164600
     10 C04          6.4410     0.1260    14.6220 ca         1 Q1P       0.222000
     11 O01          4.6510     2.2680    13.0580 o          1 Q1P      -0.695000
     12 F05          7.3710     0.6080    13.7490 f          1 Q1P      -0.175000
     13 C07          8.3390    -0.6550    16.0650 cx         1 Q1P      -0.053400
     14 C08          8.8650    -0.5670    17.4810 cx         1 Q1P      -0.135900
     15 C09          8.8610    -1.8870    16.7730 cx         1 Q1P      -0.135900
     16 C10          5.8950    -0.9660    16.6370 ca         1 Q1P      -0.053000
     17 N12          3.5800    -1.2500    17.3060 nu         1 Q1P      -0.911100
     18 S13          3.2000    -0.3070    18.5990 sy         1 Q1P       1.199600
     19 C14          2.4900     1.1750    17.9550 ca         1 Q1P      -0.418500
     20 O22          2.1700    -1.0360    19.3150 o          1 Q1P      -0.563500
     21 O23          4.4240     0.0400    19.2670 o          1 Q1P      -0.563500
     22 O25          2.8440     0.0050    14.8110 oh         1 Q1P      -0.490100
     23 O26          4.5020     0.2960    11.9900 o          1 Q1P      -0.695000
     24 H1           1.1110     4.3380    16.2300 ha         1 Q1P       0.130000
     25 H2           4.4310     2.0650    17.7130 ha         1 Q1P       0.155000
     26 H3          -0.4370     2.5710    16.9910 ha         1 Q1P       0.127000
     27 H5           8.9850    -0.2470    15.3020 hc         1 Q1P       0.089700
     28 H6           9.8110    -0.0640    17.6300 hc         1 Q1P       0.067450
     29 H7           8.1390    -0.4110    18.2680 hc         1 Q1P       0.067450
     30 H8           8.1290    -2.6230    17.0810 hc         1 Q1P       0.067450
     31 H9           9.8040    -2.2950    16.4350 hc         1 Q1P       0.067450
     32 H10          6.1550    -1.4600    17.5630 ha         1 Q1P       0.118000
     33 H11          2.8250    -1.8600    17.0130 hn         1 Q1P       0.492000
     34 H12          0.6300    -0.3260    18.6390 ho         1 Q1P       0.504000
     35 H13          2.2480    -0.3820    15.4650 ho         1 Q1P       0.428000
     36 C02          4.7180     1.0210    12.9860 c          1 Q1P       0.732600
     37 BR7          4.0630     4.6840    16.3560 br         1 Q1P      -0.079100
     38 O21          0.1920     0.3870    18.1330 oh         1 Q1P      -0.550100
@<TRIPOS>BOND
     1     1    10 ar  
     2     1    13 1   
     3     1    16 ar  
     4     2     3 ar  
     5     2     5 ar  
     6     2    24 1   
     7     3     4 ar  
     8     3    37 1   
     9     4    19 ar  
    10     4    25 1   
    11     5     6 ar  
    12     5    26 1   
    13     6    19 ar  
    14     6    38 1   
    15     7     8 ar  
    16     7     9 ar  
    17     7    22 1   
    18     8    16 ar  
    19     8    17 1   
    20     9    10 ar  
    21     9    36 1   
    22    10    12 1   
    23    11    36 1   
    24    13    14 1   
    25    13    15 1   
    26    13    27 1   
    27    14    15 1   
    28    14    28 1   
    29    14    29 1   
    30    15    30 1   
    31    15    31 1   
    32    16    32 1   
    33    17    18 1   
    34    17    33 1   
    35    18    19 1   
    36    18    20 2   
    37    18    21 2   
    38    22    35 1   
    39    23    36 1   
    40    34    38 1   
@<TRIPOS>SUBSTRUCTURE
     1 Q1P         1 TEMP              0 ****  ****    0 ROOT
