@<TRIPOS>MOLECULE
Q1P
   38    40     1     0     0
SMALL
No Charge or Current Charge


@<TRIPOS>ATOM
      1 C06          6.8800    -0.4520    15.8050 ca         1 Q1P      -0.131300
      2 C18          1.5950     3.5680    16.7130 ca         1 Q1P       0.012000
      3 C16          2.9430     3.3040    16.9990 ca         1 Q1P      -0.048900
      4 C15          3.3180     2.0730    17.5600 ca         1 Q1P       0.060000
      5 C19          0.6220     2.5920    16.9890 ca         1 Q1P      -0.175000
      6 C20          0.9890     1.3560    17.5420 ca         1 Q1P       0.237100
      7 C24          4.1610    -0.1330    15.1100 ca         1 Q1P       0.156100
      8 C11          4.5050    -0.8030    16.3030 ca         1 Q1P       0.103000
      9 C03          5.1580     0.3860    14.2710 ca         1 Q1P      -0.164600
     10 C04          6.5080     0.2290    14.6200 ca         1 Q1P       0.222000
     11 O01          4.6810     2.3170    13.0630 o          1 Q1P      -0.695000
     12 F05          7.4600     0.7370    13.8020 f          1 Q1P      -0.175000
     13 C07          8.3400    -0.6190    16.1790 cx         1 Q1P      -0.053400
     14 C08          8.8140    -0.5400    17.6140 cx         1 Q1P      -0.135900
     15 C09          8.8580    -1.8570    16.8780 cx         1 Q1P      -0.135900
     16 C10          5.8600    -0.9670    16.6370 ca         1 Q1P      -0.053000
     17 N12          3.5000    -1.2920    17.1560 nu         1 Q1P      -0.911100
     18 S13          2.8910    -0.4710    18.4850 sy         1 Q1P       1.199600
     19 C14          2.3410     1.0910    17.8300 ca         1 Q1P      -0.418500
     20 O22          1.7360    -1.2780    18.8820 o          1 Q1P      -0.563500
     21 O23          4.0620    -0.2890    19.3400 o          1 Q1P      -0.563500
     22 O25          2.8400    -0.0200    14.7940 oh         1 Q1P      -0.490100
     23 O26          4.7020     0.4420    11.9900 o          1 Q1P      -0.695000
     24 H1           1.3050     4.5210    16.2780 ha         1 Q1P       0.130000
     25 H2           4.3710     1.8820    17.7650 ha         1 Q1P       0.155000
     26 H3          -0.4220     2.7950    16.7670 ha         1 Q1P       0.127000
     27 H5           9.0160    -0.1880    15.4430 hc         1 Q1P       0.089700
     28 H6           9.7580    -0.0350    17.8050 hc         1 Q1P       0.067450
     29 H7           8.0720    -0.4180    18.3980 hc         1 Q1P       0.067450
     30 H8           8.1460    -2.6260    17.1660 hc         1 Q1P       0.067450
     31 H9           9.8320    -2.2360    16.5760 hc         1 Q1P       0.067450
     32 H10          6.1120    -1.4840    17.5580 ha         1 Q1P       0.118000
     33 H11          3.7430    -2.1690    17.6030 hn         1 Q1P       0.492000
     34 H12          0.4340    -0.3370    18.2230 ho         1 Q1P       0.504000
     35 H13          2.3760    -0.4620    15.5380 ho         1 Q1P       0.428000
     36 C02          4.8020     1.1010    13.0160 c          1 Q1P       0.732600
     37 Br7          4.2790     4.6160    16.6070 br         1 Q1P      -0.079100
     38 O21          0.0110     0.4420    17.7830 oh         1 Q1P      -0.550100
@<TRIPOS>BOND
     1     1    10 ar  
     2     1    13 1   
     3     1    16 ar  
     4     2     3 ar  
     5     2     5 ar  
     6     2    24 1   
     7     3     4 ar  
     8     3    37 1   
     9     4    19 ar  
    10     4    25 1   
    11     5     6 ar  
    12     5    26 1   
    13     6    19 ar  
    14     6    38 1   
    15     7     8 ar  
    16     7     9 ar  
    17     7    22 1   
    18     8    16 ar  
    19     8    17 1   
    20     9    10 ar  
    21     9    36 1   
    22    10    12 1   
    23    11    36 1   
    24    13    14 1   
    25    13    15 1   
    26    13    27 1   
    27    14    15 1   
    28    14    28 1   
    29    14    29 1   
    30    15    30 1   
    31    15    31 1   
    32    16    32 1   
    33    17    18 1   
    34    17    33 1   
    35    18    19 1   
    36    18    20 2   
    37    18    21 2   
    38    22    35 1   
    39    23    36 1   
    40    34    38 1   
@<TRIPOS>SUBSTRUCTURE
     1 Q1P         1 TEMP              0 ****  ****    0 ROOT
