@<TRIPOS>MOLECULE
Q1Q
   32    34     1     0     0
SMALL
bcc


@<TRIPOS>ATOM
      1 C4           0.0690    37.5470   -22.2390 c6         1 Q1Q      -0.014100
      2 C5           3.0530    33.5130   -19.6020 cp         1 Q1Q      -0.152500
      3 C6           1.0160    37.8740   -19.4270 c6         1 Q1Q      -0.128700
      4 C7          -0.5200    38.5850   -21.2910 c6         1 Q1Q       0.157500
      5 C8           0.5590    39.0320   -20.3040 c6         1 Q1Q      -0.113400
      6 C12          4.1830    32.6880   -17.6330 ca         1 Q1Q      -0.145500
      7 C3           1.1630    35.2730   -22.1260 ca         1 Q1Q       0.441200
      8 C1           1.3090    36.6330   -20.2160 ca         1 Q1Q       0.460600
      9 C2           0.8460    36.4820   -21.5220 ca         1 Q1Q      -0.313900
     10 N2          -1.1180    39.6550   -22.0700 n8         1 Q1Q      -0.878800
     11 N            2.0080    35.6760   -19.6150 nb         1 Q1Q      -0.716000
     12 N1           1.8610    34.3210   -21.5300 nb         1 Q1Q      -0.703000
     13 C            2.2640    34.5620   -20.2860 cp         1 Q1Q       0.722500
     14 C10          3.4170    32.3460   -20.2760 ca         1 Q1Q      -0.084500
     15 C11          4.1550    31.3640   -19.6350 ca         1 Q1Q      -0.145500
     16 C13          4.5400    31.5300   -18.3110 ca         1 Q1Q      -0.110000
     17 C9           3.4470    33.6730   -18.2730 ca         1 Q1Q      -0.084500
     18 H1           0.7370    38.0560   -22.9440 hc         1 Q1Q       0.060200
     19 H2          -0.7200    37.0910   -22.8420 hc         1 Q1Q       0.060200
     20 H3           0.2350    37.6320   -18.6980 hc         1 Q1Q       0.067700
     21 H4           1.8990    38.1420   -18.8430 hc         1 Q1Q       0.067700
     22 H5          -1.3250    38.1100   -20.7180 h1         1 Q1Q       0.065700
     23 H6           1.4070    39.4390   -20.8660 hc         1 Q1Q       0.045700
     24 H7           0.1770    39.8390   -19.6760 hc         1 Q1Q       0.045700
     25 H8           4.4790    32.8260   -16.6010 ha         1 Q1Q       0.131500
     26 H9           0.8300    35.0700   -23.1400 h4         1 Q1Q       0.023100
     27 H10         -1.5580    40.3210   -21.4470 hn         1 Q1Q       0.338800
     28 H11         -0.3870    40.1710   -22.5480 hn         1 Q1Q       0.338800
     29 H13          3.1190    32.2110   -21.3070 ha         1 Q1Q       0.150500
     30 H14          4.4310    30.4650   -20.1710 ha         1 Q1Q       0.131500
     31 H15          5.1150    30.7620   -17.8100 ha         1 Q1Q       0.130000
     32 H16          3.1710    34.5730   -17.7400 ha         1 Q1Q       0.150500
@<TRIPOS>BOND
     1     1     4 1   
     2     1     9 1   
     3     1    18 1   
     4     1    19 1   
     5     2    13 1   
     6     2    14 ar  
     7     2    17 ar  
     8     3     5 1   
     9     3     8 1   
    10     3    20 1   
    11     3    21 1   
    12     4     5 1   
    13     4    10 1   
    14     4    22 1   
    15     5    23 1   
    16     5    24 1   
    17     6    16 ar  
    18     6    17 ar  
    19     6    25 1   
    20     7     9 ar  
    21     7    12 ar  
    22     7    26 1   
    23     8     9 ar  
    24     8    11 ar  
    25    10    27 1   
    26    10    28 1   
    27    11    13 ar  
    28    12    13 ar  
    29    14    15 ar  
    30    14    29 1   
    31    15    16 ar  
    32    15    30 1   
    33    16    31 1   
    34    17    32 1   
@<TRIPOS>SUBSTRUCTURE
     1 Q1Q         1 TEMP              0 ****  ****    0 ROOT
