@<TRIPOS>MOLECULE
Q1Q
   32    34     1     0     0
SMALL
No Charge or Current Charge


@<TRIPOS>ATOM
      1 C4           0.0140    37.5530   -22.2860 c6         1 Q1Q      -0.014100
      2 C5           3.0790    33.4840   -19.5980 cp         1 Q1Q      -0.152500
      3 C6           0.9450    37.8880   -19.4170 c6         1 Q1Q      -0.128700
      4 C7          -0.5780    38.6200   -21.3260 c6         1 Q1Q       0.157500
      5 C8           0.4810    39.0770   -20.2950 c6         1 Q1Q      -0.113400
      6 C12          4.2730    32.6560   -17.6040 ca         1 Q1Q      -0.127500
      7 C3           1.1690    35.2690   -22.2030 ca         1 Q1Q       0.112900
      8 C1           1.2660    36.6350   -20.2340 ca         1 Q1Q       0.132300
      9 C2           0.8200    36.4690   -21.5600 ca         1 Q1Q      -0.183300
     10 N2          -1.0850    39.7850   -22.0790 n8         1 Q1Q      -0.989200
     11 N            1.9830    35.6790   -19.6110 nb         1 Q1Q      -0.190000
     12 N1           1.8900    34.3190   -21.5750 nb         1 Q1Q      -0.177000
     13 C            2.2740    34.5520   -20.2990 cp         1 Q1Q       0.196500
     14 C10          3.4280    32.2670   -20.2500 ca         1 Q1Q      -0.066500
     15 C11          4.1780    31.2750   -19.5950 ca         1 Q1Q      -0.127500
     16 C13          4.6010    31.4670   -18.2720 ca         1 Q1Q      -0.092000
     17 C9           3.5230    33.6500   -18.2550 ca         1 Q1Q      -0.066500
     18 H1           0.6700    38.0390   -23.0210 hc         1 Q1Q       0.060200
     19 H2          -0.8000    37.0900   -22.8620 hc         1 Q1Q       0.060200
     20 H3           0.1570    37.6420   -18.6930 hc         1 Q1Q       0.067700
     21 H4           1.8210    38.1890   -18.8260 hc         1 Q1Q       0.067700
     22 H5          -1.4270    38.1730   -20.7830 h1         1 Q1Q       0.065700
     23 H6           1.3480    39.5050   -20.8170 hc         1 Q1Q       0.045700
     24 H7           0.0770    39.8710   -19.6510 hc         1 Q1Q       0.045700
     25 H8           4.6000    32.8080   -16.5780 ha         1 Q1Q       0.113500
     26 H9           0.8720    35.0640   -23.2300 h4         1 Q1Q       0.023100
     27 H10         -1.4480    40.4750   -21.4100 hn         1 Q1Q       0.394000
     28 H11         -0.2890    40.2690   -22.5090 hn         1 Q1Q       0.394000
     29 H13          3.1180    32.0810   -21.2770 ha         1 Q1Q       0.132500
     30 H14          4.4310    30.3540   -20.1170 ha         1 Q1Q       0.113500
     31 H15          5.1820    30.6980   -17.7670 ha         1 Q1Q       0.112000
     32 H16          3.2890    34.5580   -17.7030 ha         1 Q1Q       0.132500
@<TRIPOS>BOND
     1     1     4 1   
     2     1     9 1   
     3     1    18 1   
     4     1    19 1   
     5     2    13 1   
     6     2    14 ar  
     7     2    17 ar  
     8     3     5 1   
     9     3     8 1   
    10     3    20 1   
    11     3    21 1   
    12     4     5 1   
    13     4    10 1   
    14     4    22 1   
    15     5    23 1   
    16     5    24 1   
    17     6    16 ar  
    18     6    17 ar  
    19     6    25 1   
    20     7     9 ar  
    21     7    12 ar  
    22     7    26 1   
    23     8     9 ar  
    24     8    11 ar  
    25    10    27 1   
    26    10    28 1   
    27    11    13 ar  
    28    12    13 ar  
    29    14    15 ar  
    30    14    29 1   
    31    15    16 ar  
    32    15    30 1   
    33    16    31 1   
    34    17    32 1   
@<TRIPOS>SUBSTRUCTURE
     1 Q1Q         1 TEMP              0 ****  ****    0 ROOT
