@<TRIPOS>MOLECULE
Q1R
   43    45     1     0     0
SMALL
No Charge or Current Charge


@<TRIPOS>ATOM
      1 C4         -11.6840     2.5380     0.2530 ca         1 Q1R      -0.150600
      2 C5         -13.0130     2.8790    -0.3990 c          1 Q1R       0.617700
      3 C8         -10.4460     2.9630    -0.2880 ca         1 Q1R      -0.066000
      4 C15        -13.4900     4.8810    -3.5650 ca         1 Q1R      -0.146500
      5 C17        -15.7850     5.2320    -4.2880 ca         1 Q1R      -0.134000
      6 C20         -9.1770    -0.4950     5.1740 c3         1 Q1R       0.146300
      7 C21         -7.7130    -0.6530     5.5530 ca         1 Q1R      -0.115300
      8 C22         -6.9660    -1.7430     5.0650 ca         1 Q1R      -0.099000
      9 C24         -4.9940    -0.9380     6.2440 ca         1 Q1R      -0.105000
     10 C26         -7.0890     0.2950     6.3870 ca         1 Q1R      -0.099000
     11 C23         -5.6110    -1.8860     5.4100 ca         1 Q1R      -0.110000
     12 C25         -5.7330     0.1530     6.7320 ca         1 Q1R      -0.110000
     13 N13         -9.3150     0.2890     3.9500 ns         1 Q1R      -0.501900
     14 C11        -10.5180     0.5990     3.3590 c          1 Q1R       0.608700
     15 O12        -11.5740     0.2200     3.8460 o          1 Q1R      -0.589100
     16 C2         -10.4650     1.4240     2.0890 ca         1 Q1R      -0.146600
     17 C3         -11.6740     1.7700     1.4410 ca         1 Q1R      -0.009000
     18 C1          -9.2440     1.8630     1.5250 ca         1 Q1R      -0.065000
     19 C9          -9.2420     2.6250     0.3480 ca         1 Q1R       0.105000
     20 Cl10        -7.7140     3.1630    -0.3390 cl         1 Q1R      -0.195000
     21 O6         -14.0700     2.4980     0.0910 o          1 Q1R      -0.569100
     22 N7         -12.9400     3.6370    -1.5640 ns         1 Q1R      -0.142000
     23 C14        -13.9330     4.1490    -2.4460 ca         1 Q1R      -0.025000
     24 C16        -14.4080     5.4200    -4.4820 ca         1 Q1R      -0.083500
     25 C18        -16.2410     4.5050    -3.1770 ca         1 Q1R      -0.083500
     26 C19        -15.3220     3.9660    -2.2590 ca         1 Q1R      -0.146500
     27 H1         -10.3930     3.5560    -1.1970 ha         1 Q1R       0.134000
     28 H2         -12.4250     5.0350    -3.7280 ha         1 Q1R       0.128500
     29 H3         -16.4980     5.6480    -4.9970 ha         1 Q1R       0.116000
     30 H4          -9.7210     0.0060     5.9860 h1         1 Q1R       0.069700
     31 H5          -9.6320    -1.4840     5.0220 h1         1 Q1R       0.069700
     32 H6          -7.4360    -2.4800     4.4160 ha         1 Q1R       0.114500
     33 H7          -3.9450    -1.0480     6.5110 ha         1 Q1R       0.114000
     34 H8          -7.6540     1.1450     6.7670 ha         1 Q1R       0.114500
     35 H9          -5.0390    -2.7300     5.0300 ha         1 Q1R       0.114500
     36 H10         -5.2570     0.8880     7.3770 ha         1 Q1R       0.114500
     37 H11         -8.4740     0.6280     3.5050 hn         1 Q1R       0.316500
     38 H12        -12.6190     1.4360     1.8690 ha         1 Q1R       0.161000
     39 H13         -8.2880     1.6260     1.9820 ha         1 Q1R       0.135000
     40 H14        -11.9980     3.8720    -1.8430 hn         1 Q1R       0.151000
     41 H15        -14.0520     5.9830    -5.3430 ha         1 Q1R       0.115000
     42 H16        -17.3090     4.3590    -3.0260 ha         1 Q1R       0.115000
     43 H17        -15.7140     3.4110    -1.4130 ha         1 Q1R       0.128500
@<TRIPOS>BOND
     1     1     2 1   
     2     1     3 ar  
     3     1    17 ar  
     4     2    21 2   
     5     2    22 1   
     6     3    19 ar  
     7     3    27 1   
     8     4    23 ar  
     9     4    24 ar  
    10     4    28 1   
    11     5    24 ar  
    12     5    25 ar  
    13     5    29 1   
    14     6     7 1   
    15     6    13 1   
    16     6    30 1   
    17     6    31 1   
    18     7     8 ar  
    19     7    10 ar  
    20     8    11 ar  
    21     8    32 1   
    22     9    11 ar  
    23     9    12 ar  
    24     9    33 1   
    25    10    12 ar  
    26    10    34 1   
    27    11    35 1   
    28    12    36 1   
    29    13    14 1   
    30    13    37 1   
    31    14    15 2   
    32    14    16 1   
    33    16    17 ar  
    34    16    18 ar  
    35    17    38 1   
    36    18    19 ar  
    37    18    39 1   
    38    19    20 1   
    39    22    23 1   
    40    22    40 1   
    41    23    26 ar  
    42    24    41 1   
    43    25    26 ar  
    44    25    42 1   
    45    26    43 1   
@<TRIPOS>SUBSTRUCTURE
     1 Q1R         1 TEMP              0 ****  ****    0 ROOT
