@<TRIPOS>MOLECULE
Q1R
   43    45     1     0     0
SMALL
abcg2


@<TRIPOS>ATOM
      1 C4         -11.4000     2.9280     0.3960 ca         1 Q1R      -0.150600
      2 C5         -12.7460     3.3550    -0.1130 c          1 Q1R       0.617700
      3 C8         -10.2070     3.4370    -0.1200 ca         1 Q1R      -0.066000
      4 C15        -13.6650     4.1700    -3.6010 ca         1 Q1R      -0.146500
      5 C17        -15.9140     4.9770    -3.9170 ca         1 Q1R      -0.134000
      6 C20         -8.9850    -1.3030     4.1520 c3         1 Q1R       0.146300
      7 C21         -7.8140    -0.9830     5.0550 ca         1 Q1R      -0.115300
      8 C22         -6.9510    -1.9970     5.4670 ca         1 Q1R      -0.099000
      9 C24         -5.6740    -0.4220     6.7710 ca         1 Q1R      -0.105000
     10 C26         -7.5920     0.3180     5.5090 ca         1 Q1R      -0.099000
     11 C23         -5.8880    -1.7210     6.3210 ca         1 Q1R      -0.110000
     12 C25         -6.5300     0.5970     6.3610 ca         1 Q1R      -0.110000
     13 N13         -9.1730    -0.3230     3.0950 ns         1 Q1R      -0.501900
     14 C11        -10.1720     0.5780     3.0840 c          1 Q1R       0.608700
     15 O12        -11.0670     0.6120     3.9290 o          1 Q1R      -0.589100
     16 C2         -10.1500     1.5680     1.9530 ca         1 Q1R      -0.146600
     17 C3         -11.3650     2.0150     1.4460 ca         1 Q1R      -0.009000
     18 C1          -8.9550     2.0700     1.4380 ca         1 Q1R      -0.065000
     19 C9          -9.0040     3.0070     0.4170 ca         1 Q1R       0.105000
     20 CL10        -7.5100     3.6720    -0.1980 cl         1 Q1R      -0.195000
     21 O6         -13.7120     3.4170     0.6410 o          1 Q1R      -0.569100
     22 N7         -12.7920     3.6390    -1.4420 ns         1 Q1R      -0.142000
     23 C14        -13.8750     4.0860    -2.2200 ca         1 Q1R      -0.025000
     24 C16        -14.6760     4.6120    -4.4400 ca         1 Q1R      -0.083500
     25 C18        -16.1210     4.8940    -2.5450 ca         1 Q1R      -0.083500
     26 C19        -15.1160     4.4530    -1.6900 ca         1 Q1R      -0.146500
     27 H1         -10.2040     4.1800    -0.9070 ha         1 Q1R       0.134000
     28 H2         -12.7020     3.8880    -4.0110 ha         1 Q1R       0.128500
     29 H3         -16.7040     5.3210    -4.5710 ha         1 Q1R       0.116000
     30 H4          -9.9100    -1.3320     4.7270 h1         1 Q1R       0.069700
     31 H5          -8.8440    -2.2850     3.7000 h1         1 Q1R       0.069700
     32 H6          -7.1100    -3.0080     5.1110 ha         1 Q1R       0.114500
     33 H7          -4.8450    -0.2040     7.4330 ha         1 Q1R       0.114000
     34 H8          -8.2500     1.1180     5.1920 ha         1 Q1R       0.114500
     35 H9          -5.2230    -2.5190     6.6290 ha         1 Q1R       0.114500
     36 H10         -6.3700     1.6110     6.7050 ha         1 Q1R       0.114500
     37 H11         -8.4980    -0.3160     2.3460 hn         1 Q1R       0.316500
     38 H12        -12.2900     1.6420     1.8620 ha         1 Q1R       0.161000
     39 H13         -7.9990     1.7660     1.8410 ha         1 Q1R       0.135000
     40 H14        -11.9520     3.4480    -1.9670 hn         1 Q1R       0.151000
     41 H15        -14.4940     4.6710    -5.5060 ha         1 Q1R       0.115000
     42 H16        -17.0780     5.1760    -2.1250 ha         1 Q1R       0.115000
     43 H17        -15.2870     4.3910    -0.6290 ha         1 Q1R       0.128500
@<TRIPOS>BOND
     1     1     2 1   
     2     1     3 ar  
     3     1    17 ar  
     4     2    21 2   
     5     2    22 1   
     6     3    19 ar  
     7     3    27 1   
     8     4    23 ar  
     9     4    24 ar  
    10     4    28 1   
    11     5    24 ar  
    12     5    25 ar  
    13     5    29 1   
    14     6     7 1   
    15     6    13 1   
    16     6    30 1   
    17     6    31 1   
    18     7     8 ar  
    19     7    10 ar  
    20     8    11 ar  
    21     8    32 1   
    22     9    11 ar  
    23     9    12 ar  
    24     9    33 1   
    25    10    12 ar  
    26    10    34 1   
    27    11    35 1   
    28    12    36 1   
    29    13    14 1   
    30    13    37 1   
    31    14    15 2   
    32    14    16 1   
    33    16    17 ar  
    34    16    18 ar  
    35    17    38 1   
    36    18    19 ar  
    37    18    39 1   
    38    19    20 1   
    39    22    23 1   
    40    22    40 1   
    41    23    26 ar  
    42    24    41 1   
    43    25    26 ar  
    44    25    42 1   
    45    26    43 1   
@<TRIPOS>SUBSTRUCTURE
     1 Q1R         1 TEMP              0 ****  ****    0 ROOT
