@<TRIPOS>MOLECULE
Q1S
   48    51     1     0     0
SMALL
abcg2


@<TRIPOS>ATOM
      1 C01          1.6960     0.1570     0.1900 ca         1 Q1S       0.640900
      2 N02          0.3640    -0.0530    -0.0260 nu         1 Q1S      -0.938900
      3 C03         -0.3790    -1.2150    -0.0570 ca         1 Q1S       0.313000
      4 C04          0.1350    -2.5050    -0.0180 ca         1 Q1S      -0.080000
      5 C05         -0.7370    -3.5790    -0.1460 ca         1 Q1S      -0.156200
      6 C06         -2.1000    -3.4200    -0.3200 ca         1 Q1S      -0.071000
      7 C07         -2.6070    -2.1310    -0.3340 ca         1 Q1S      -0.127000
      8 C08         -1.7780    -1.0290    -0.1900 ca         1 Q1S       0.217000
      9 N09         -2.2490     0.2960    -0.1850 nh         1 Q1S      -0.799400
     10 C10         -3.3810     0.5940    -1.0470 c6         1 Q1S       0.179300
     11 C11         -3.5620     2.0980    -1.1250 c6         1 Q1S       0.161300
     12 N12         -3.7770     2.6550     0.1940 n3         1 Q1S      -0.716600
     13 C13         -2.6660     2.3460     1.0670 c6         1 Q1S       0.161300
     14 C14         -2.4440     0.8500     1.1560 c6         1 Q1S       0.179300
     15 C15          2.2040     1.5000     0.0510 ca         1 Q1S      -0.120000
     16 C16          3.5800     1.6930     0.3140 ca         1 Q1S       0.018000
     17 C17          4.3690     0.5730     0.6790 ca         1 Q1S      -0.198000
     18 C18          3.7680    -0.6430     0.7610 ca         1 Q1S       0.381900
     19 N19          2.4560    -0.8540     0.5240 nb         1 Q1S      -0.755000
     20 C20          1.4210     2.6120    -0.3240 ca         1 Q1S      -0.084000
     21 C21          1.9780     3.8600    -0.4260 ca         1 Q1S      -0.121000
     22 C22          3.3450     4.0510    -0.1580 ca         1 Q1S      -0.085000
     23 C23          4.1290     2.9890     0.2020 ca         1 Q1S      -0.109000
     24 N24         -0.1840    -4.9220    -0.1070 no         1 Q1S       0.693200
     25 O25          0.9900    -5.0520     0.1510 o          1 Q1S      -0.399500
     26 O26         -0.9260    -5.8500    -0.3340 o          1 Q1S      -0.399500
     27 C27         -4.0330     4.0760     0.1410 c3         1 Q1S       0.152100
     28 H1          -0.2110     0.7430    -0.2710 hn         1 Q1S       0.525000
     29 H2           1.1960    -2.6520     0.0910 ha         1 Q1S       0.189000
     30 H3          -2.7650    -4.2650    -0.4180 ha         1 Q1S       0.152000
     31 H4          -3.6730    -1.9890    -0.4440 ha         1 Q1S       0.127000
     32 H5          -3.1830     0.1990    -2.0450 h1         1 Q1S       0.050700
     33 H6          -4.3120     0.1380    -0.6830 h1         1 Q1S       0.050700
     34 H7          -2.6820     2.5430    -1.6230 h1         1 Q1S       0.039450
     35 H8          -4.4300     2.3160    -1.7520 h1         1 Q1S       0.039450
     36 H10         -1.7310     2.8320     0.7310 h1         1 Q1S       0.039450
     37 H11         -2.8770     2.7300     2.0680 h1         1 Q1S       0.039450
     38 H12         -3.3000     0.3710     1.6520 h1         1 Q1S       0.050700
     39 H13         -1.5620     0.6540     1.7680 h1         1 Q1S       0.050700
     40 H14          5.4250     0.6890     0.8810 ha         1 Q1S       0.127000
     41 H15          4.3380    -1.5250     1.0300 h4         1 Q1S       0.023100
     42 H16          0.3670     2.5150    -0.5540 ha         1 Q1S       0.110000
     43 H17          1.3630     4.7020    -0.7170 ha         1 Q1S       0.115000
     44 H18          3.7740     5.0410    -0.2420 ha         1 Q1S       0.117000
     45 H19          5.1840     3.1280     0.4060 ha         1 Q1S       0.120000
     46 H20         -4.9020     4.2760    -0.4890 h1         1 Q1S       0.033367
     47 H21         -4.2500     4.4550     1.1410 h1         1 Q1S       0.033367
     48 H22         -3.1870     4.6550    -0.2620 h1         1 Q1S       0.033367
@<TRIPOS>BOND
     1     1     2 1   
     2     1    15 ar  
     3     1    19 ar  
     4     2     3 1   
     5     2    28 1   
     6     3     4 ar  
     7     3     8 ar  
     8     4     5 ar  
     9     4    29 1   
    10     5     6 ar  
    11     5    24 1   
    12     6     7 ar  
    13     6    30 1   
    14     7     8 ar  
    15     7    31 1   
    16     8     9 1   
    17     9    10 1   
    18     9    14 1   
    19    10    11 1   
    20    10    32 1   
    21    10    33 1   
    22    11    12 1   
    23    11    34 1   
    24    11    35 1   
    25    12    13 1   
    26    12    27 1   
    27    13    14 1   
    28    13    36 1   
    29    13    37 1   
    30    14    38 1   
    31    14    39 1   
    32    15    16 ar  
    33    15    20 ar  
    34    16    17 ar  
    35    16    23 ar  
    36    17    18 ar  
    37    17    40 1   
    38    18    19 ar  
    39    18    41 1   
    40    20    21 ar  
    41    20    42 1   
    42    21    22 ar  
    43    21    43 1   
    44    22    23 ar  
    45    22    44 1   
    46    23    45 1   
    47    24    25 1   
    48    24    26 1   
    49    27    46 1   
    50    27    47 1   
    51    27    48 1   
@<TRIPOS>SUBSTRUCTURE
     1 Q1S         1 TEMP              0 ****  ****    0 ROOT
