@<TRIPOS>MOLECULE
Q1S
   48    51     1     0     0
SMALL
No Charge or Current Charge


@<TRIPOS>ATOM
      1 C01          1.7040     0.1750     0.1120 ca         1 Q1S       0.640900
      2 N02          0.4280    -0.1770    -0.2730 nu         1 Q1S      -0.938900
      3 C03         -0.3720    -1.3310    -0.2270 ca         1 Q1S       0.313000
      4 C04          0.1480    -2.6370    -0.3190 ca         1 Q1S      -0.080000
      5 C05         -0.7120    -3.7630    -0.3040 ca         1 Q1S      -0.156200
      6 C06         -2.1080    -3.5580    -0.2060 ca         1 Q1S      -0.071000
      7 C07         -2.6320    -2.2560    -0.1340 ca         1 Q1S      -0.127000
      8 C08         -1.7810    -1.1370    -0.1480 ca         1 Q1S       0.217000
      9 N09         -2.3240     0.1810    -0.0790 nh         1 Q1S      -0.799400
     10 C10         -3.4600     0.5770    -0.9700 c6         1 Q1S       0.179300
     11 C11         -3.5990     2.1300    -1.0900 c6         1 Q1S       0.161300
     12 N12         -3.6990     2.8060     0.2410 n3         1 Q1S      -0.716600
     13 C13         -2.5350     2.4240     1.0980 c6         1 Q1S       0.161300
     14 C14         -2.3750     0.8760     1.2460 c6         1 Q1S       0.179300
     15 C15          2.1800     1.5050    -0.0150 ca         1 Q1S      -0.120000
     16 C16          3.4820     1.7860     0.4460 ca         1 Q1S       0.018000
     17 C17          4.2320     0.7400     1.0030 ca         1 Q1S      -0.198000
     18 C18          3.6630    -0.5390     1.0870 ca         1 Q1S       0.381900
     19 N19          2.4160    -0.8200     0.6540 nb         1 Q1S      -0.755000
     20 C20          1.4090     2.5500    -0.5800 ca         1 Q1S      -0.084000
     21 C21          1.9420     3.8480    -0.6730 ca         1 Q1S      -0.121000
     22 C22          3.2400     4.1160    -0.2090 ca         1 Q1S      -0.085000
     23 C23          4.0120     3.0850     0.3500 ca         1 Q1S      -0.109000
     24 N24         -0.1500    -5.1510    -0.3970 no         1 Q1S       0.693200
     25 O25          1.0780    -5.2810    -0.4920 o          1 Q1S      -0.399500
     26 O26         -0.9390    -6.1050    -0.3780 o          1 Q1S      -0.399500
     27 C27         -3.8680     4.2700     0.1270 c3         1 Q1S       0.152100
     28 H1          -0.1790     0.6330    -0.3770 hn         1 Q1S       0.525000
     29 H2           1.2190    -2.7730    -0.4200 ha         1 Q1S       0.189000
     30 H3          -2.7960    -4.4020    -0.1910 ha         1 Q1S       0.152000
     31 H4          -3.7070    -2.1160    -0.0600 ha         1 Q1S       0.127000
     32 H5          -3.3160     0.1600    -1.9770 h1         1 Q1S       0.050700
     33 H6          -4.4030     0.1700    -0.5770 h1         1 Q1S       0.050700
     34 H7          -2.7290     2.5140    -1.6420 h1         1 Q1S       0.039450
     35 H8          -4.4880     2.3550    -1.6980 h1         1 Q1S       0.039450
     36 H10         -1.6060     2.8300     0.6710 h1         1 Q1S       0.039450
     37 H11         -2.6420     2.8610     2.1020 h1         1 Q1S       0.039450
     38 H12         -3.2210     0.4890     1.8340 h1         1 Q1S       0.050700
     39 H13         -1.4600     0.6720     1.8220 h1         1 Q1S       0.050700
     40 H14          5.2400     0.9070     1.3720 ha         1 Q1S       0.127000
     41 H15          4.2250    -1.3660     1.5200 h4         1 Q1S       0.023100
     42 H16          0.4050     2.3730    -0.9560 ha         1 Q1S       0.110000
     43 H17          1.3470     4.6480    -1.1090 ha         1 Q1S       0.115000
     44 H18          3.6480     5.1220    -0.2840 ha         1 Q1S       0.117000
     45 H19          5.0170     3.2950     0.7080 ha         1 Q1S       0.120000
     46 H20         -4.7590     4.5120    -0.4670 h1         1 Q1S       0.033367
     47 H21         -3.9880     4.7250     1.1190 h1         1 Q1S       0.033367
     48 H22         -2.9960     4.7290    -0.3590 h1         1 Q1S       0.033367
@<TRIPOS>BOND
     1     1     2 1   
     2     1    15 ar  
     3     1    19 ar  
     4     2     3 1   
     5     2    28 1   
     6     3     4 ar  
     7     3     8 ar  
     8     4     5 ar  
     9     4    29 1   
    10     5     6 ar  
    11     5    24 1   
    12     6     7 ar  
    13     6    30 1   
    14     7     8 ar  
    15     7    31 1   
    16     8     9 1   
    17     9    10 1   
    18     9    14 1   
    19    10    11 1   
    20    10    32 1   
    21    10    33 1   
    22    11    12 1   
    23    11    34 1   
    24    11    35 1   
    25    12    13 1   
    26    12    27 1   
    27    13    14 1   
    28    13    36 1   
    29    13    37 1   
    30    14    38 1   
    31    14    39 1   
    32    15    16 ar  
    33    15    20 ar  
    34    16    17 ar  
    35    16    23 ar  
    36    17    18 ar  
    37    17    40 1   
    38    18    19 ar  
    39    18    41 1   
    40    20    21 ar  
    41    20    42 1   
    42    21    22 ar  
    43    21    43 1   
    44    22    23 ar  
    45    22    44 1   
    46    23    45 1   
    47    24    25 1   
    48    24    26 1   
    49    27    46 1   
    50    27    47 1   
    51    27    48 1   
@<TRIPOS>SUBSTRUCTURE
     1 Q1S         1 TEMP              0 ****  ****    0 ROOT
