@<TRIPOS>MOLECULE
Q1T
   49    50     1     0     0
SMALL
bcc


@<TRIPOS>ATOM
      1 N01         -3.8840    -1.2120     0.1350 nb         1 Q1T      -0.757000
      2 C02         -5.1490    -1.5570     0.3450 ca         1 Q1T       0.666200
      3 N02         -5.3770    -2.7980     0.8640 nv         1 Q1T      -0.945500
      4 C03         -6.2180    -0.6780     0.0920 ca         1 Q1T      -0.315300
      5 C04         -5.9480     0.5900    -0.3770 ca         1 Q1T       0.002700
      6 C05         -4.6090     0.9460    -0.5790 ca         1 Q1T      -0.297300
      7 C06         -3.6200     0.0170    -0.3150 ca         1 Q1T       0.462600
      8 C07         -7.0480     1.5670    -0.6590 c3         1 Q1T      -0.053800
      9 C08         -2.1680     0.3460    -0.5190 c3         1 Q1T      -0.123700
     10 C09         -1.3600     0.2550     0.7830 c3         1 Q1T      -0.031100
     11 C11          0.0950     0.5370     0.5400 ca         1 Q1T      -0.037300
     12 C12          0.5850     1.8350     0.6210 ca         1 Q1T      -0.148000
     13 C13          1.9290     2.0530     0.3300 ca         1 Q1T       0.026000
     14 C14          2.7870     1.0240    -0.0410 ca         1 Q1T      -0.182000
     15 C15          2.3000    -0.2900    -0.1430 ca         1 Q1T       0.205600
     16 C16          0.9420    -0.4980     0.1690 ca         1 Q1T      -0.192000
     17 C17          2.4550     3.3780     0.4270 cg         1 Q1T       0.237800
     18 N18          2.8770     4.4480     0.5040 n1         1 Q1T      -0.373800
     19 C19          2.5990    -2.6830    -0.4740 c3         1 Q1T       0.219100
     20 N19          3.0960    -1.3280    -0.5330 nh         1 Q1T      -0.698000
     21 C20          4.4590    -1.1210    -0.9670 c3         1 Q1T       0.229800
     22 C21          5.4720    -1.1540     0.1720 c3         1 Q1T       0.126800
     23 N22          6.8090    -0.9500    -0.3420 n7         1 Q1T      -0.803200
     24 C23          7.8140    -0.9310     0.7010 c3         1 Q1T       0.145100
     25 H021        -4.6300    -3.4650     0.7650 hn         1 Q1T       0.413300
     26 H022        -6.2970    -3.1900     0.7500 hn         1 Q1T       0.413300
     27 H03         -7.2370    -1.0000     0.2670 ha         1 Q1T       0.136000
     28 H05         -4.3470     1.9330    -0.9420 ha         1 Q1T       0.140000
     29 H071        -6.9790     2.4290     0.0070 hc         1 Q1T       0.047033
     30 H072        -6.9820     1.9460    -1.6790 hc         1 Q1T       0.047033
     31 H073        -8.0310     1.1170    -0.5260 hc         1 Q1T       0.047033
     32 H081        -1.7390    -0.3450    -1.2500 hc         1 Q1T       0.055200
     33 H082        -2.0700     1.3480    -0.9410 hc         1 Q1T       0.055200
     34 H091        -1.7640     0.9630     1.5100 hc         1 Q1T       0.059700
     35 H092        -1.4840    -0.7440     1.2060 hc         1 Q1T       0.059700
     36 H12         -0.0580     2.6580     0.9040 ha         1 Q1T       0.143000
     37 H16          0.5230    -1.4940     0.1090 ha         1 Q1T       0.135000
     38 H14          3.8240     1.2590    -0.2330 ha         1 Q1T       0.147000
     39 H191         1.7990    -2.8670    -1.1980 h1         1 Q1T       0.036367
     40 H192         3.4110    -3.3690    -0.7020 h1         1 Q1T       0.036367
     41 H193         2.2210    -2.9390     0.5180 h1         1 Q1T       0.036367
     42 H201         4.7010    -1.9030    -1.6900 h1         1 Q1T       0.055200
     43 H202         4.5430    -0.1800    -1.5150 h1         1 Q1T       0.055200
     44 H211         5.2520    -0.3540     0.8860 h1         1 Q1T       0.038200
     45 H212         5.3630    -2.0990     0.7300 h1         1 Q1T       0.038200
     46 H22          7.0270    -1.6960    -0.9910 hn         1 Q1T       0.347800
     47 H231         8.8060    -0.8370     0.2580 h1         1 Q1T       0.031700
     48 H232         7.6600    -0.0660     1.3490 h1         1 Q1T       0.031700
     49 H233         7.8140    -1.8240     1.3410 h1         1 Q1T       0.031700
@<TRIPOS>BOND
     1     1     2 ar  
     2     1     7 ar  
     3     2     3 1   
     4     2     4 ar  
     5     3    25 1   
     6     3    26 1   
     7     4     5 ar  
     8     4    27 1   
     9     5     6 ar  
    10     5     8 1   
    11     6     7 ar  
    12     6    28 1   
    13     7     9 1   
    14     8    29 1   
    15     8    30 1   
    16     8    31 1   
    17     9    10 1   
    18     9    32 1   
    19     9    33 1   
    20    10    11 1   
    21    10    34 1   
    22    10    35 1   
    23    11    12 ar  
    24    11    16 ar  
    25    12    13 ar  
    26    12    36 1   
    27    13    14 ar  
    28    13    17 1   
    29    14    15 ar  
    30    14    38 1   
    31    15    16 ar  
    32    15    20 1   
    33    16    37 1   
    34    17    18 3   
    35    19    20 1   
    36    19    39 1   
    37    19    40 1   
    38    19    41 1   
    39    20    21 1   
    40    21    22 1   
    41    21    42 1   
    42    21    43 1   
    43    22    23 1   
    44    22    44 1   
    45    22    45 1   
    46    23    24 1   
    47    23    46 1   
    48    24    47 1   
    49    24    48 1   
    50    24    49 1   
@<TRIPOS>SUBSTRUCTURE
     1 Q1T         1 TEMP              0 ****  ****    0 ROOT
