@<TRIPOS>MOLECULE
Q1T
   49    50     1     0     0
SMALL
No Charge or Current Charge


@<TRIPOS>ATOM
      1 N01         -4.1500    -1.4250    -0.5780 nb         1 Q1T      -0.757000
      2 C02         -5.4490    -1.6350    -0.4290 ca         1 Q1T       0.600900
      3 N02         -5.7380    -2.9340    -0.5150 nv         1 Q1T      -1.055900
      4 C03         -6.4080    -0.6410    -0.2230 ca         1 Q1T      -0.232000
      5 C04         -5.9820     0.6930    -0.1600 ca         1 Q1T       0.002700
      6 C05         -4.6070     0.9390    -0.3090 ca         1 Q1T      -0.214000
      7 C06         -3.7280    -0.1420    -0.5170 ca         1 Q1T       0.397300
      8 C07         -6.9660     1.8280     0.0700 c3         1 Q1T      -0.053800
      9 C08         -2.2340     0.0950    -0.6760 c3         1 Q1T      -0.123700
     10 C09         -1.5180     0.2800     0.6790 c3         1 Q1T      -0.031100
     11 C11         -0.0280     0.5410     0.5080 ca         1 Q1T      -0.037300
     12 C12          0.4540     1.8580     0.4090 ca         1 Q1T      -0.130000
     13 C13          1.8300     2.0980     0.2420 ca         1 Q1T       0.026000
     14 C14          2.7230     1.0120     0.1710 ca         1 Q1T      -0.164000
     15 C15          2.2580    -0.3130     0.2650 ca         1 Q1T       0.344000
     16 C16          0.8760    -0.5340     0.4340 ca         1 Q1T      -0.174000
     17 C17          2.3210     3.4470     0.1460 cg         1 Q1T       0.327000
     18 N18          2.7290     4.5390     0.0670 n1         1 Q1T      -0.463000
     19 C19          2.8660    -2.6960     0.8610 c3         1 Q1T       0.219100
     20 N19          3.1620    -1.4060     0.1940 nh         1 Q1T      -0.836400
     21 C20          4.3840    -1.3540    -0.6550 c3         1 Q1T       0.229800
     22 C21          5.7060    -1.1100     0.1280 c3         1 Q1T       0.126800
     23 N22          6.8900    -1.0500    -0.7670 n7         1 Q1T      -0.858400
     24 C23          8.1720    -0.7650    -0.0910 c3         1 Q1T       0.145100
     25 H021        -4.9960    -3.5060    -0.8980 hn         1 Q1T       0.468500
     26 H022        -6.6860    -3.1890    -0.7700 hn         1 Q1T       0.468500
     27 H03         -7.4560    -0.9010    -0.1120 ha         1 Q1T       0.118000
     28 H05         -4.2190     1.9520    -0.2640 ha         1 Q1T       0.122000
     29 H071        -7.0600     2.0520     1.1380 hc         1 Q1T       0.047033
     30 H072        -6.6420     2.7450    -0.4380 hc         1 Q1T       0.047033
     31 H073        -7.9630     1.5750    -0.3100 hc         1 Q1T       0.047033
     32 H081        -1.7690    -0.7400    -1.2160 hc         1 Q1T       0.055200
     33 H082        -2.0680     0.9860    -1.2930 hc         1 Q1T       0.055200
     34 H091        -1.9860     1.1100     1.2250 hc         1 Q1T       0.059700
     35 H092        -1.6760    -0.6150     1.2940 hc         1 Q1T       0.059700
     36 H12         -0.2410     2.6940     0.4610 ha         1 Q1T       0.125000
     37 H16          0.4920    -1.5470     0.4940 ha         1 Q1T       0.117000
     38 H14          3.7850     1.2070     0.0540 ha         1 Q1T       0.129000
     39 H191         2.2000    -3.3080     0.2380 h1         1 Q1T       0.036367
     40 H192         3.7890    -3.2640     1.0420 h1         1 Q1T       0.036367
     41 H193         2.3850    -2.5250     1.8330 h1         1 Q1T       0.036367
     42 H201         4.4780    -2.2970    -1.2110 h1         1 Q1T       0.055200
     43 H202         4.2770    -0.5670    -1.4150 h1         1 Q1T       0.055200
     44 H211         5.6110    -0.1700     0.6880 h1         1 Q1T       0.038200
     45 H212         5.8310    -1.9160     0.8650 h1         1 Q1T       0.038200
     46 H22          6.9790    -1.9550    -1.2500 hn         1 Q1T       0.403000
     47 H231         8.9930    -0.7250    -0.8200 h1         1 Q1T       0.031700
     48 H232         8.1330     0.2010     0.4300 h1         1 Q1T       0.031700
     49 H233         8.4080    -1.5440     0.6460 h1         1 Q1T       0.031700
@<TRIPOS>BOND
     1     1     2 ar  
     2     1     7 ar  
     3     2     3 1   
     4     2     4 ar  
     5     3    25 1   
     6     3    26 1   
     7     4     5 ar  
     8     4    27 1   
     9     5     6 ar  
    10     5     8 1   
    11     6     7 ar  
    12     6    28 1   
    13     7     9 1   
    14     8    29 1   
    15     8    30 1   
    16     8    31 1   
    17     9    10 1   
    18     9    32 1   
    19     9    33 1   
    20    10    11 1   
    21    10    34 1   
    22    10    35 1   
    23    11    12 ar  
    24    11    16 ar  
    25    12    13 ar  
    26    12    36 1   
    27    13    14 ar  
    28    13    17 1   
    29    14    15 ar  
    30    14    38 1   
    31    15    16 ar  
    32    15    20 1   
    33    16    37 1   
    34    17    18 3   
    35    19    20 1   
    36    19    39 1   
    37    19    40 1   
    38    19    41 1   
    39    20    21 1   
    40    21    22 1   
    41    21    42 1   
    42    21    43 1   
    43    22    23 1   
    44    22    44 1   
    45    22    45 1   
    46    23    24 1   
    47    23    46 1   
    48    24    47 1   
    49    24    48 1   
    50    24    49 1   
@<TRIPOS>SUBSTRUCTURE
     1 Q1T         1 TEMP              0 ****  ****    0 ROOT
