@<TRIPOS>MOLECULE
Q1U
   38    40     1     0     0
SMALL
No Charge or Current Charge


@<TRIPOS>ATOM
      1 N1           8.0140    -0.7620    20.4070 ns         1 Q1U      -0.159000
      2 C4           5.3670     1.4660    18.9920 ca         1 Q1U      -0.118000
      3 C5           5.6200     1.2680    17.6230 ca         1 Q1U       0.356900
      4 C6           7.3620    -0.1890    18.0730 ca         1 Q1U       0.334900
      5 C7           7.1950    -0.0560    19.4740 ca         1 Q1U      -0.089000
      6 C8           9.2250    -1.4230    20.2570 c          1 Q1U       0.599100
      7 C10         10.7810    -1.1810    22.2160 ca         1 Q1U      -0.067300
      8 C13         12.6870     0.4920    23.4530 ca         1 Q1U      -0.095000
      9 C15         12.1460    -1.2910    21.8850 ca         1 Q1U      -0.077000
     10 C17          5.9150     0.9940    21.3210 ca         1 Q1U      -0.217000
     11 C14         13.0940    -0.4570    22.5020 ca         1 Q1U       0.127000
     12 C12         11.3260     0.6080    23.7870 ca         1 Q1U      -0.100000
     13 C11         10.3770    -0.2250    23.1700 ca         1 Q1U      -0.102000
     14 C9           9.7490    -2.0780    21.5410 c3         1 Q1U      -0.108100
     15 O1           9.8580    -1.4630    19.2080 o          1 Q1U      -0.563100
     16 N            6.5960     0.4560    17.1630 nb         1 Q1U      -0.652000
     17 C16          6.1640     0.7940    19.9440 ca         1 Q1U       0.013000
     18 C3           4.3330     2.3230    19.4090 ca         1 Q1U      -0.048000
     19 C2           4.0910     2.5150    20.7780 ca         1 Q1U      -0.131000
     20 C1           4.8760     1.8570    21.7370 ca         1 Q1U       0.163100
     21 O            4.5910     2.0900    23.0680 os         1 Q1U      -0.344100
     22 C            5.3360     1.4740    24.1350 c3         1 Q1U       0.147900
     23 H1           7.6400    -0.7880    21.3460 hn         1 Q1U       0.150000
     24 H2           5.0200     1.7740    16.8660 h4         1 Q1U       0.021100
     25 H3           8.1160    -0.8460    17.6480 h4         1 Q1U       0.038100
     26 H4          13.4230     1.1350    23.9280 ha         1 Q1U       0.131000
     27 H5          12.4750    -2.0190    21.1470 ha         1 Q1U       0.133000
     28 H6           6.5250     0.4880    22.0610 ha         1 Q1U       0.114000
     29 H7          11.0080     1.3440    24.5230 ha         1 Q1U       0.119000
     30 H8           9.3260    -0.1260    23.4350 ha         1 Q1U       0.111000
     31 H9           8.9170    -2.2460    22.2360 hc         1 Q1U       0.065700
     32 H10         10.2080    -3.0400    21.2850 hc         1 Q1U       0.065700
     33 H11          3.7170     2.8410    18.6750 ha         1 Q1U       0.123000
     34 H12          3.2930     3.1780    21.1000 ha         1 Q1U       0.133000
     35 H13          4.9440     1.7980    25.1070 h1         1 Q1U       0.045033
     36 H14          5.2590     0.3810    24.0850 h1         1 Q1U       0.045033
     37 H15          6.3950     1.7560    24.0850 h1         1 Q1U       0.045033
     38 Cl          14.7960    -0.6020    22.0810 cl         1 Q1U      -0.210000
@<TRIPOS>BOND
     1     1     5 1   
     2     1     6 1   
     3     1    23 1   
     4     2     3 ar  
     5     2    17 ar  
     6     2    18 ar  
     7     3    16 ar  
     8     3    24 1   
     9     4     5 ar  
    10     4    16 ar  
    11     4    25 1   
    12     5    17 ar  
    13     6    14 1   
    14     6    15 2   
    15     7     9 ar  
    16     7    13 ar  
    17     7    14 1   
    18     8    11 ar  
    19     8    12 ar  
    20     8    26 1   
    21     9    11 ar  
    22     9    27 1   
    23    10    17 ar  
    24    10    20 ar  
    25    10    28 1   
    26    11    38 1   
    27    12    13 ar  
    28    12    29 1   
    29    13    30 1   
    30    14    31 1   
    31    14    32 1   
    32    18    19 ar  
    33    18    33 1   
    34    19    20 ar  
    35    19    34 1   
    36    20    21 1   
    37    21    22 1   
    38    22    35 1   
    39    22    36 1   
    40    22    37 1   
@<TRIPOS>SUBSTRUCTURE
     1 Q1U         1 TEMP              0 ****  ****    0 ROOT
