@<TRIPOS>MOLECULE
Q1U
   38    40     1     0     0
SMALL
abcg2


@<TRIPOS>ATOM
      1 N1           7.8600    -0.6710    20.5480 ns         1 Q1U      -0.159000
      2 C4           5.2210     1.3870    18.9360 ca         1 Q1U      -0.118000
      3 C5           5.6340     1.2070    17.6010 ca         1 Q1U       0.356900
      4 C6           7.3950    -0.1110    18.2290 ca         1 Q1U       0.334900
      5 C7           7.0970    -0.0040    19.5690 ca         1 Q1U      -0.089000
      6 C8           9.2190    -0.7520    20.5980 c          1 Q1U       0.599100
      7 C10         11.0370    -1.0200    22.3200 ca         1 Q1U      -0.067300
      8 C13         13.4350     0.0500    23.3070 ca         1 Q1U      -0.095000
      9 C15         12.2610    -1.4890    21.8470 ca         1 Q1U      -0.077000
     10 C17          5.6070     0.9780    21.3230 ca         1 Q1U      -0.217000
     11 C14         13.4380    -0.9490    22.3450 ca         1 Q1U       0.127000
     12 C12         12.2100     0.5120    23.7770 ca         1 Q1U      -0.100000
     13 C11         11.0220    -0.0180    23.2900 ca         1 Q1U      -0.102000
     14 C9           9.7450    -1.5660    21.7770 c3         1 Q1U      -0.108100
     15 O1           9.9580    -0.2440    19.7670 o          1 Q1U      -0.563100
     16 N            6.6830     0.4930    17.2490 nb         1 Q1U      -0.652000
     17 C16          5.9800     0.7790    19.9740 ca         1 Q1U       0.013000
     18 C3           4.0870     2.1650    19.2790 ca         1 Q1U      -0.048000
     19 C2           3.7280     2.3350    20.5840 ca         1 Q1U      -0.131000
     20 C1           4.4970     1.7400    21.6190 ca         1 Q1U       0.163100
     21 O            4.0540     1.9930    22.8700 os         1 Q1U      -0.344100
     22 C            4.7730     1.4350    23.9730 c3         1 Q1U       0.147900
     23 H1           7.3540    -1.0690    21.3240 hn         1 Q1U       0.150000
     24 H2           5.0610     1.6770    16.8060 h4         1 Q1U       0.021100
     25 H3           8.2400    -0.7070    17.9130 h4         1 Q1U       0.038100
     26 H4          14.3650     0.4540    23.6820 ha         1 Q1U       0.131000
     27 H5          12.2950    -2.2680    21.0970 ha         1 Q1U       0.133000
     28 H6           6.2000     0.5470    22.1140 ha         1 Q1U       0.114000
     29 H7          12.1890     1.2890    24.5310 ha         1 Q1U       0.119000
     30 H8          10.0730     0.3480    23.6640 ha         1 Q1U       0.111000
     31 H9           8.9940    -1.6080    22.5660 hc         1 Q1U       0.065700
     32 H10          9.8870    -2.5860    21.4090 hc         1 Q1U       0.065700
     33 H11          3.5080     2.6240    18.4870 ha         1 Q1U       0.123000
     34 H12          2.8640     2.9260    20.8600 ha         1 Q1U       0.133000
     35 H13          4.2420     1.7560    24.8650 h1         1 Q1U       0.045033
     36 H14          4.7820     0.3440    23.9180 h1         1 Q1U       0.045033
     37 H15          5.7980     1.8110    23.9960 h1         1 Q1U       0.045033
     38 CL          14.9720    -1.5490    21.7410 cl         1 Q1U      -0.210000
@<TRIPOS>BOND
     1     1     5 1   
     2     1     6 1   
     3     1    23 1   
     4     2     3 ar  
     5     2    17 ar  
     6     2    18 ar  
     7     3    16 ar  
     8     3    24 1   
     9     4     5 ar  
    10     4    16 ar  
    11     4    25 1   
    12     5    17 ar  
    13     6    14 1   
    14     6    15 2   
    15     7     9 ar  
    16     7    13 ar  
    17     7    14 1   
    18     8    11 ar  
    19     8    12 ar  
    20     8    26 1   
    21     9    11 ar  
    22     9    27 1   
    23    10    17 ar  
    24    10    20 ar  
    25    10    28 1   
    26    11    38 1   
    27    12    13 ar  
    28    12    29 1   
    29    13    30 1   
    30    14    31 1   
    31    14    32 1   
    32    18    19 ar  
    33    18    33 1   
    34    19    20 ar  
    35    19    34 1   
    36    20    21 1   
    37    21    22 1   
    38    22    35 1   
    39    22    36 1   
    40    22    37 1   
@<TRIPOS>SUBSTRUCTURE
     1 Q1U         1 TEMP              0 ****  ****    0 ROOT
