@<TRIPOS>MOLECULE
Q1V
   72    78     1     0     0
SMALL
No Charge or Current Charge


@<TRIPOS>ATOM
      1 OP3         64.3650    14.4510    -3.5880 o          1 Q1V      -0.776250
      2 OP1         69.7190    18.1510     0.1580 o          1 Q1V      -0.776250
      3 OP2         68.3160    19.8120    -1.0500 o          1 Q1V      -0.776250
      4 C4          67.4580    18.9780     3.6760 c5         1 Q1V       0.127100
      5 O4          66.4250    18.3170     4.4360 os         1 Q1V      -0.453000
      6 C3          67.6530    18.1240     2.3840 c5         1 Q1V       0.201300
      7 O3          67.5660    19.0210     1.2460 os         1 Q1V      -0.593900
      8 C2          66.4270    17.1360     2.3690 c5         1 Q1V       0.118300
      9 C1          65.5050    17.7230     3.4990 c5         1 Q1V       0.295800
     10 N9          64.4580    18.6900     3.1330 na         1 Q1V      -0.185000
     11 C8          64.4720    19.6070     2.0950 cc         1 Q1V       0.451400
     12 N7          63.3480    20.3150     2.0490 nd         1 Q1V      -0.599500
     13 C5          62.5610    19.8160     3.0760 cd         1 Q1V       0.116000
     14 C6          61.1990    20.2080     3.5430 c          1 Q1V       0.521000
     15 O6          60.5210    21.1140     3.0820 o          1 Q1V      -0.505500
     16 N1          60.7690    19.4390     4.5860 ns         1 Q1V      -0.457900
     17 C9          61.5060    18.4490     5.1280 cd         1 Q1V       0.717300
     18 N2          60.9740    17.7840     6.1360 nv         1 Q1V      -1.055200
     19 N3          62.7180    18.0810     4.7900 nc         1 Q1V      -0.717600
     20 C7          63.2250    18.8040     3.7270 cc         1 Q1V       0.102400
     21 O2          66.8600    15.7820     2.6350 oh         1 Q1V      -0.716500
     22 N10         67.3040    17.2800    -0.8660 na         1 Q1V      -0.071200
     23 C14         66.2940    17.4580    -1.7640 cz         1 Q1V       0.134500
     24 N15         65.9990    18.6020    -2.4060 nv         1 Q1V      -0.497800
     25 C11         67.4220    15.9170    -0.5800 cc         1 Q1V      -0.177000
     26 C12         66.4600    15.2630    -1.3150 cd         1 Q1V      -0.177000
     27 N13         65.7790    16.2350    -2.0210 na         1 Q1V      -0.020500
     28 P34         64.3330    15.8750    -3.1350 p5         1 Q1V       1.248900
     29 OP4         64.3300    16.8460    -4.2700 o          1 Q1V      -0.776250
     30 O33         63.0390    16.1430    -2.1970 os         1 Q1V      -0.593900
     31 C32         62.9040    15.3550    -0.9860 c5         1 Q1V       0.201300
     32 C28         61.3740    15.2500    -0.6550 c5         1 Q1V       0.118300
     33 O29         61.0060    13.8880    -0.3350 oh         1 Q1V      -0.716500
     34 C31         63.5250    16.1480     0.2110 c5         1 Q1V       0.127100
     35 O30         62.5030    16.2200     1.2230 os         1 Q1V      -0.453000
     36 C27         61.2230    16.2330     0.5610 c5         1 Q1V       0.295800
     37 N26         60.7840    17.6090     0.2930 na         1 Q1V      -0.185000
     38 C22         59.7680    18.2670     0.9400 cc         1 Q1V       0.102400
     39 N21         59.0300    17.8380     2.0260 nc         1 Q1V      -0.717600
     40 C19         58.1110    18.6970     2.3940 cd         1 Q1V       0.717300
     41 N20         57.3900    18.3350     3.4380 nv         1 Q1V      -1.055200
     42 N18         57.8230    19.8830     1.8240 ns         1 Q1V      -0.457900
     43 C17         58.4980    20.3810     0.7450 c          1 Q1V       0.521000
     44 O16         58.2140    21.4600     0.2420 o          1 Q1V      -0.505500
     45 C23         59.5730    19.4560     0.2780 cd         1 Q1V       0.116000
     46 N24         60.4650    19.5560    -0.7820 nd         1 Q1V      -0.599500
     47 C25         61.1750    18.4320    -0.7500 cc         1 Q1V       0.451400
     48 H5          68.6150    17.5920     2.3950 h1         1 Q1V       0.083200
     49 H6          65.9020    17.1790     1.4070 h1         1 Q1V       0.091700
     50 H7          64.9630    16.9070     3.9930 h2         1 Q1V       0.077700
     51 H8          65.3100    19.7260     1.4240 h5         1 Q1V       0.075600
     52 H9          59.8550    19.6440     4.9530 hn         1 Q1V       0.313500
     53 H10         61.4920    16.9500     6.3780 hn         1 Q1V       0.492000
     54 H11         59.9670    17.6830     6.1380 hn         1 Q1V       0.492000
     55 H12         66.0600    15.2110     2.7140 ho         1 Q1V       0.509000
     56 H13         66.5390    19.4530    -2.2620 hn         1 Q1V       0.394000
     57 H14         65.3600    18.6390    -3.1950 hn         1 Q1V       0.394000
     58 H15         68.1680    15.5320     0.1080 h4         1 Q1V       0.178500
     59 H16         66.2190    14.2060    -1.3830 h4         1 Q1V       0.178500
     60 H17         63.3620    14.3630    -1.1100 h1         1 Q1V       0.083200
     61 H18         60.7750    15.6050    -1.5060 h1         1 Q1V       0.091700
     62 H19         60.0210    13.8370    -0.3240 ho         1 Q1V       0.509000
     63 H20         64.4060    15.6400     0.6230 h1         1 Q1V       0.066950
     64 H21         63.8090    17.1680    -0.0790 h1         1 Q1V       0.066950
     65 H22         60.4670    15.8350     1.2490 h2         1 Q1V       0.077700
     66 H23         57.4960    17.3550     3.6690 hn         1 Q1V       0.492000
     67 H24         56.4430    18.6880     3.4900 hn         1 Q1V       0.492000
     68 H25         57.0980    20.4650     2.2100 hn         1 Q1V       0.313500
     69 H26         61.9610    18.1680    -1.4430 h5         1 Q1V       0.075600
     70 H3          68.3750    19.0390     4.2780 h1         1 Q1V       0.066950
     71 P           68.3360    18.6370    -0.1270 p5         1 Q1V       1.248900
     72 H4          67.1310    20.0000     3.4400 h1         1 Q1V       0.066950
@<TRIPOS>BOND
     1     1    28 1   
     2     2    71 1   
     3     3    71 1   
     4     4     5 1   
     5     4     6 1   
     6     4    70 1   
     7     4    72 1   
     8     5     9 1   
     9     6     7 1   
    10     6     8 1   
    11     6    48 1   
    12     7    71 1   
    13     8     9 1   
    14     8    21 1   
    15     8    49 1   
    16     9    10 1   
    17     9    50 1   
    18    10    11 1   
    19    10    20 1   
    20    11    12 2   
    21    11    51 1   
    22    12    13 1   
    23    13    14 1   
    24    13    20 2   
    25    14    15 2   
    26    14    16 1   
    27    16    17 1   
    28    16    52 1   
    29    17    18 1   
    30    17    19 2   
    31    18    53 1   
    32    18    54 1   
    33    19    20 1   
    34    21    55 1   
    35    22    23 2   
    36    22    25 1   
    37    22    71 1   
    38    23    24 1   
    39    23    27 1   
    40    24    56 1   
    41    24    57 1   
    42    25    26 2   
    43    25    58 1   
    44    26    27 1   
    45    26    59 1   
    46    27    28 1   
    47    28    29 1   
    48    28    30 1   
    49    30    31 1   
    50    31    32 1   
    51    31    34 1   
    52    31    60 1   
    53    32    33 1   
    54    32    36 1   
    55    32    61 1   
    56    33    62 1   
    57    34    35 1   
    58    34    63 1   
    59    34    64 1   
    60    35    36 1   
    61    36    37 1   
    62    36    65 1   
    63    37    38 1   
    64    37    47 1   
    65    38    39 1   
    66    38    45 2   
    67    39    40 2   
    68    40    41 1   
    69    40    42 1   
    70    41    66 1   
    71    41    67 1   
    72    42    43 1   
    73    42    68 1   
    74    43    44 2   
    75    43    45 1   
    76    45    46 1   
    77    46    47 2   
    78    47    69 1   
@<TRIPOS>SUBSTRUCTURE
     1 Q1V         1 TEMP              0 ****  ****    0 ROOT
