@<TRIPOS>MOLECULE
Q1V
   72    78     1     0     0
SMALL
bcc


@<TRIPOS>ATOM
      1 OP3         63.5830    15.0520    -3.5380 o          1 Q1V      -0.776250
      2 OP1         68.8540    18.5980    -0.1030 o          1 Q1V      -0.776250
      3 OP2         66.9410    20.3580    -0.6160 o          1 Q1V      -0.776250
      4 C4          68.0810    18.1220     3.1280 c5         1 Q1V       0.103900
      5 O4          67.2860    18.6400     4.1970 os         1 Q1V      -0.406600
      6 C3          67.1010    17.6410     2.0730 c5         1 Q1V       0.178100
      7 O3          66.6650    18.7020     1.2400 os         1 Q1V      -0.570700
      8 C2          65.9180    17.2040     2.9300 c5         1 Q1V       0.095100
      9 C1          65.9610    18.2390     4.0680 c5         1 Q1V       0.243300
     10 N9          65.1260    19.3970     3.7730 na         1 Q1V      -0.206400
     11 C8          65.4990    20.6500     3.3620 cc         1 Q1V       0.451400
     12 N7          64.4840    21.4340     3.1550 nd         1 Q1V      -0.599500
     13 C5          63.3850    20.6650     3.4350 cd         1 Q1V       0.181300
     14 C6          61.9930    20.9660     3.3710 c          1 Q1V       0.663500
     15 O6          61.4480    22.0100     3.0540 o          1 Q1V      -0.581000
     16 N1          61.2310    19.8540     3.7520 ns         1 Q1V      -0.524900
     17 C9          61.7140    18.6310     4.1160 cd         1 Q1V       0.717300
     18 N2          60.8140    17.7010     4.4790 nv         1 Q1V      -0.944800
     19 N3          62.9930    18.3550     4.1640 nc         1 Q1V      -0.717600
     20 C7          63.7680    19.3950     3.8210 cc         1 Q1V       0.087800
     21 O2          66.2090    15.9210     3.4110 oh         1 Q1V      -0.594300
     22 N10         66.6280    17.8400    -1.2040 na         1 Q1V      -0.121900
     23 C14         65.3930    17.9570    -1.7230 cz         1 Q1V       0.185200
     24 N15         64.6360    19.0460    -1.6730 nv         1 Q1V      -0.397200
     25 C11         67.0680    16.5380    -1.4400 cc         1 Q1V      -0.144300
     26 C12         66.0920    15.8880    -2.0870 cd         1 Q1V      -0.144300
     27 N13         65.0330    16.7780    -2.2600 na         1 Q1V      -0.121900
     28 P34         63.4080    16.3540    -2.8500 p5         1 Q1V       1.248900
     29 OP4         62.8750    17.5990    -3.4660 o          1 Q1V      -0.776250
     30 O33         62.6290    16.1940    -1.4300 os         1 Q1V      -0.570700
     31 C32         62.6850    15.0250    -0.6320 c5         1 Q1V       0.178100
     32 C28         61.3890    14.9590     0.1760 c5         1 Q1V       0.095100
     33 O29         61.2580    13.6410     0.6310 oh         1 Q1V      -0.594300
     34 C31         63.7230    15.1170     0.4800 c5         1 Q1V       0.103900
     35 O30         63.0770    15.7540     1.5850 os         1 Q1V      -0.406600
     36 C27         61.7170    15.8960     1.3510 c5         1 Q1V       0.243300
     37 N26         61.4150    17.2890     1.0480 na         1 Q1V      -0.206400
     38 C22         60.1660    17.8190     0.9910 cc         1 Q1V       0.087800
     39 N21         59.0220    17.1670     1.2440 nc         1 Q1V      -0.717600
     40 C19         57.9620    17.9290     1.1370 cd         1 Q1V       0.717300
     41 N20         56.7470    17.4240     1.4040 nv         1 Q1V      -0.944800
     42 N18         58.0290    19.2500     0.7970 ns         1 Q1V      -0.524900
     43 C17         59.1970    19.9780     0.5210 c          1 Q1V       0.663500
     44 O16         59.1350    21.1620     0.2350 o          1 Q1V      -0.581000
     45 C23         60.3440    19.1420     0.6340 cd         1 Q1V       0.181300
     46 N24         61.6770    19.4230     0.4790 nd         1 Q1V      -0.599500
     47 C25         62.2830    18.3040     0.7330 cc         1 Q1V       0.451400
     48 H5          67.5010    16.8020     1.4970 h1         1 Q1V       0.083200
     49 H6          64.9720    17.2370     2.3820 h1         1 Q1V       0.091700
     50 H7          65.5970    17.8130     5.0080 h2         1 Q1V       0.077700
     51 H8          66.5340    20.9280     3.2430 h5         1 Q1V       0.075600
     52 H9          60.2270    19.9870     3.7320 hn         1 Q1V       0.313500
     53 H10         61.1490    16.7600     4.6040 hn         1 Q1V       0.436800
     54 H11         59.8430    17.7970     4.2330 hn         1 Q1V       0.436800
     55 H12         65.4700    15.6190     3.9510 ho         1 Q1V       0.410000
     56 H13         65.0860    19.9120    -1.4080 hn         1 Q1V       0.343700
     57 H14         63.8140    19.0730    -2.2610 hn         1 Q1V       0.343700
     58 H15         68.0440    16.2080    -1.1320 h4         1 Q1V       0.196500
     59 H16         66.0440    14.8780    -2.4520 h4         1 Q1V       0.196500
     60 H17         62.8260    14.1330    -1.2470 h1         1 Q1V       0.083200
     61 H18         60.5200    15.2960    -0.3980 h1         1 Q1V       0.091700
     62 H19         60.4530    13.5720     1.1550 ho         1 Q1V       0.410000
     63 H20         64.0460    14.1170     0.7800 h1         1 Q1V       0.066950
     64 H21         64.6090    15.6890     0.2050 h1         1 Q1V       0.066950
     65 H22         61.1490    15.6280     2.2480 h2         1 Q1V       0.077700
     66 H23         56.6730    16.4250     1.4990 hn         1 Q1V       0.436800
     67 H24         55.9100    17.9070     1.1250 hn         1 Q1V       0.436800
     68 H25         57.1670    19.7780     0.7380 hn         1 Q1V       0.313500
     69 H26         63.3520    18.1640     0.7160 h5         1 Q1V       0.075600
     70 H3          68.6900    17.2900     3.4910 h1         1 Q1V       0.066950
     71 P           67.4360    19.0310    -0.1570 p5         1 Q1V       1.248900
     72 H4          68.7460    18.9030     2.7600 h1         1 Q1V       0.066950
@<TRIPOS>BOND
     1     1    28 1   
     2     2    71 1   
     3     3    71 1   
     4     4     5 1   
     5     4     6 1   
     6     4    70 1   
     7     4    72 1   
     8     5     9 1   
     9     6     7 1   
    10     6     8 1   
    11     6    48 1   
    12     7    71 1   
    13     8     9 1   
    14     8    21 1   
    15     8    49 1   
    16     9    10 1   
    17     9    50 1   
    18    10    11 1   
    19    10    20 1   
    20    11    12 2   
    21    11    51 1   
    22    12    13 1   
    23    13    14 1   
    24    13    20 2   
    25    14    15 2   
    26    14    16 1   
    27    16    17 1   
    28    16    52 1   
    29    17    18 1   
    30    17    19 2   
    31    18    53 1   
    32    18    54 1   
    33    19    20 1   
    34    21    55 1   
    35    22    23 2   
    36    22    25 1   
    37    22    71 1   
    38    23    24 1   
    39    23    27 1   
    40    24    56 1   
    41    24    57 1   
    42    25    26 2   
    43    25    58 1   
    44    26    27 1   
    45    26    59 1   
    46    27    28 1   
    47    28    29 1   
    48    28    30 1   
    49    30    31 1   
    50    31    32 1   
    51    31    34 1   
    52    31    60 1   
    53    32    33 1   
    54    32    36 1   
    55    32    61 1   
    56    33    62 1   
    57    34    35 1   
    58    34    63 1   
    59    34    64 1   
    60    35    36 1   
    61    36    37 1   
    62    36    65 1   
    63    37    38 1   
    64    37    47 1   
    65    38    39 1   
    66    38    45 2   
    67    39    40 2   
    68    40    41 1   
    69    40    42 1   
    70    41    66 1   
    71    41    67 1   
    72    42    43 1   
    73    42    68 1   
    74    43    44 2   
    75    43    45 1   
    76    45    46 1   
    77    46    47 2   
    78    47    69 1   
@<TRIPOS>SUBSTRUCTURE
     1 Q1V         1 TEMP              0 ****  ****    0 ROOT
