@<TRIPOS>MOLECULE
Q1W
   20    19     1     0     0
SMALL
abcg2


@<TRIPOS>ATOM
      1 C01         46.4640    -7.1140   -26.6750 c          1 Q1W       0.639000
      2 C02         47.1580    -8.4970   -26.8050 c          1 Q1W       0.442100
      3 C03         48.6630    -8.4840   -26.7230 c3         1 Q1W      -0.163400
      4 C04         49.4610    -9.7720   -26.9670 c3         1 Q1W      -0.166000
      5 C05         50.9670    -9.3950   -26.7900 c          1 Q1W       0.720000
      6 C06         49.1270   -10.8380   -25.9160 c3         1 Q1W      -0.049100
      7 C07         49.1910   -10.3240   -28.3650 c3         1 Q1W      -0.049100
      8 O01         46.4850    -9.4960   -26.9390 o          1 Q1W      -0.601100
      9 O02         45.4510    -6.9500   -27.3720 o          1 Q1W      -0.727500
     10 O03         46.9930    -6.3240   -25.8730 o          1 Q1W      -0.727500
     11 O04         51.2880    -8.9440   -25.6700 o          1 Q1W      -0.754000
     12 O05         51.7330    -9.5700   -27.7580 o          1 Q1W      -0.754000
     13 H01         49.0010    -7.7060   -27.4210 hc         1 Q1W       0.068200
     14 H02         48.9160    -8.0820   -25.7380 hc         1 Q1W       0.068200
     15 H04         49.2310   -10.4440   -24.9040 hc         1 Q1W       0.008867
     16 H06         48.1110   -11.2110   -26.0310 hc         1 Q1W       0.008867
     17 H05         49.8010   -11.6940   -26.0060 hc         1 Q1W       0.008867
     18 H07         48.1510   -10.6300   -28.4770 hc         1 Q1W       0.008867
     19 H09         49.4040    -9.5820   -29.1370 hc         1 Q1W       0.008867
     20 H08         49.8150   -11.1950   -28.5700 hc         1 Q1W       0.008867
@<TRIPOS>BOND
     1     1     2 1   
     2     1     9 1   
     3     1    10 1   
     4     2     3 1   
     5     2     8 2   
     6     3     4 1   
     7     3    13 1   
     8     3    14 1   
     9     4     5 1   
    10     4     6 1   
    11     4     7 1   
    12     5    11 1   
    13     5    12 1   
    14     6    15 1   
    15     6    16 1   
    16     6    17 1   
    17     7    18 1   
    18     7    19 1   
    19     7    20 1   
@<TRIPOS>SUBSTRUCTURE
     1 Q1W         1 TEMP              0 ****  ****    0 ROOT
