@<TRIPOS>MOLECULE
Q1W
   20    19     1     0     0
SMALL
No Charge or Current Charge


@<TRIPOS>ATOM
      1 C01         46.5530    -7.5970   -27.4570 c          1 Q1W       0.639000
      2 C02         47.2270    -8.4410   -26.2420 c          1 Q1W       0.442100
      3 C03         48.7730    -8.4440   -26.1550 c3         1 Q1W      -0.163400
      4 C04         49.4720    -9.6750   -26.8330 c3         1 Q1W      -0.166000
      5 C05         51.0270    -9.4660   -26.7090 c          1 Q1W       0.720000
      6 C06         49.0510   -10.9990   -26.1270 c3         1 Q1W      -0.049100
      7 C07         49.0510    -9.7740   -28.3320 c3         1 Q1W      -0.049100
      8 O01         46.5480    -9.0410   -25.4010 o          1 Q1W      -0.601100
      9 O02         45.5620    -8.0610   -28.0180 o          1 Q1W      -0.727500
     10 O03         47.0240    -6.5000   -27.7480 o          1 Q1W      -0.727500
     11 O04         51.6040    -9.8980   -25.7210 o          1 Q1W      -0.754000
     12 O05         51.6360    -8.9690   -27.6460 o          1 Q1W      -0.754000
     13 H01         49.1510    -7.5510   -26.6650 hc         1 Q1W       0.068200
     14 H02         49.0660    -8.4120   -25.0980 hc         1 Q1W       0.068200
     15 H04         49.2230   -10.9480   -25.0450 hc         1 Q1W       0.008867
     16 H06         47.9880   -11.2170   -26.2850 hc         1 Q1W       0.008867
     17 H05         49.6230   -11.8470   -26.5230 hc         1 Q1W       0.008867
     18 H07         47.9830   -10.0040   -28.4310 hc         1 Q1W       0.008867
     19 H09         49.2400    -8.8340   -28.8630 hc         1 Q1W       0.008867
     20 H08         49.6080   -10.5720   -28.8390 hc         1 Q1W       0.008867
@<TRIPOS>BOND
     1     1     2 1   
     2     1     9 1   
     3     1    10 1   
     4     2     3 1   
     5     2     8 2   
     6     3     4 1   
     7     3    13 1   
     8     3    14 1   
     9     4     5 1   
    10     4     6 1   
    11     4     7 1   
    12     5    11 1   
    13     5    12 1   
    14     6    15 1   
    15     6    16 1   
    16     6    17 1   
    17     7    18 1   
    18     7    19 1   
    19     7    20 1   
@<TRIPOS>SUBSTRUCTURE
     1 Q1W         1 TEMP              0 ****  ****    0 ROOT
