@<TRIPOS>MOLECULE
Q1Y
   64    69     1     0     0
SMALL
bcc


@<TRIPOS>ATOM
      1 C10        -21.9100    27.8180    17.4120 ca         1 Q1Y       0.145100
      2 C13        -23.8780    25.9540    16.9240 ca         1 Q1Y       0.011100
      3 C15        -24.4950    24.1680    18.0790 c5         1 Q1Y       0.326200
      4 C17        -22.9880    25.7890    17.9670 ca         1 Q1Y       0.092100
      5 C21        -17.9550    32.2690    17.3720 c6         1 Q1Y       0.147800
      6 C22        -17.3360    30.9620    16.8860 c6         1 Q1Y      -0.109400
      7 C24        -16.1190    26.7450    16.6630 ca         1 Q1Y      -0.203600
      8 C28        -13.2770    24.5840    19.4270 cc         1 Q1Y      -0.118300
      9 C02        -16.7940    26.0380    15.6770 ca         1 Q1Y       0.188900
     10 C03        -17.9490    26.5220    15.1000 ca         1 Q1Y      -0.177000
     11 C04        -18.4400    27.7540    15.5070 ca         1 Q1Y      -0.072000
     12 C05        -17.7950    28.5030    16.4870 ca         1 Q1Y      -0.100300
     13 C06        -18.3580    29.8230    16.9450 c6         1 Q1Y      -0.009400
     14 C07        -18.9450    29.7320    18.3670 c6         1 Q1Y      -0.092700
     15 C08        -19.9550    28.6110    18.5210 c3         1 Q1Y       0.148400
     16 C11        -22.8060    27.9870    16.3580 ca         1 Q1Y      -0.175000
     17 C12        -23.8100    27.0520    16.1010 ca         1 Q1Y      -0.072000
     18 C18        -21.9910    26.6940    18.2490 ca         1 Q1Y      -0.203000
     19 C19        -19.5090    31.0950    18.7820 c6         1 Q1Y       0.151800
     20 C23        -16.6390    27.9760    17.0540 ca         1 Q1Y      -0.085000
     21 C27        -13.5150    26.0510    19.2810 c3         1 Q1Y       0.173200
     22 C29        -12.0960    23.8570    19.5560 ca         1 Q1Y      -0.131000
     23 C30        -10.7220    24.1800    19.5560 ca         1 Q1Y      -0.074000
     24 C31         -9.8250    23.1610    19.7140 ca         1 Q1Y      -0.147000
     25 C32        -10.2570    21.8140    19.8750 ca         1 Q1Y      -0.119000
     26 C33        -11.5800    21.4720    19.8770 ca         1 Q1Y      -0.099000
     27 C34        -12.5280    22.5090    19.7140 ca         1 Q1Y      -0.064000
     28 F01        -16.3400    24.8380    15.2960 f          1 Q1Y      -0.118900
     29 N20        -18.5500    32.1820    18.6950 n7         1 Q1Y      -0.787200
     30 N26        -14.7340    26.3680    18.5790 ns         1 Q1Y      -0.594900
     31 N35        -13.8600    22.4210    19.6800 nc         1 Q1Y      -0.279400
     32 N36        -14.2550    23.6790    19.5130 na         1 Q1Y       0.075800
     33 O09        -20.9880    28.7900    17.5710 os         1 Q1Y      -0.324900
     34 O14        -24.7240    24.8870    16.8780 os         1 Q1Y      -0.317900
     35 O16        -23.2540    24.6240    18.6070 os         1 Q1Y      -0.321900
     36 O37        -13.9560    25.7500    16.5580 o          1 Q1Y      -0.551100
     37 H1         -25.2970    24.3720    18.7980 h2         1 Q1Y       0.065200
     38 H2         -24.4340    23.1010    17.8670 h2         1 Q1Y       0.065200
     39 H3         -17.2050    33.0620    17.3750 h1         1 Q1Y       0.057200
     40 H4         -18.7360    32.5800    16.6700 h1         1 Q1Y       0.057200
     41 H5         -16.4680    30.7210    17.5080 hc         1 Q1Y       0.048200
     42 H6         -16.9680    31.0800    15.8630 hc         1 Q1Y       0.048200
     43 H7         -18.4630    25.9400    14.3460 ha         1 Q1Y       0.159000
     44 H8         -19.3480    28.1320    15.0540 ha         1 Q1Y       0.146000
     45 H9         -19.1750    30.0850    16.2650 hc         1 Q1Y       0.072700
     46 H10        -18.1300    29.4870    19.0630 hc         1 Q1Y       0.047700
     47 H11        -20.3640    28.6180    19.5400 h1         1 Q1Y       0.038700
     48 H12        -19.4660    27.6420    18.3730 h1         1 Q1Y       0.038700
     49 H13        -22.7200    28.8630    15.7290 ha         1 Q1Y       0.150000
     50 H14        -24.4980    27.1900    15.2780 ha         1 Q1Y       0.155000
     51 H15        -21.3170    26.5320    19.0780 ha         1 Q1Y       0.154000
     52 H16        -20.3660    31.3480    18.1480 h1         1 Q1Y       0.062200
     53 H17        -19.8840    31.0400    19.8080 h1         1 Q1Y       0.062200
     54 H18        -16.1080    28.5470    17.8070 ha         1 Q1Y       0.132000
     55 H19        -12.6580    26.4990    18.7750 h1         1 Q1Y       0.068700
     56 H20        -13.5780    26.5190    20.2650 h1         1 Q1Y       0.068700
     57 H21        -10.3870    25.2030    19.4340 ha         1 Q1Y       0.129000
     58 H22         -8.7630    23.3710    19.7180 ha         1 Q1Y       0.128000
     59 H23         -9.5080    21.0420    19.9990 ha         1 Q1Y       0.127000
     60 H24        -11.8970    20.4440    20.0000 ha         1 Q1Y       0.143000
     61 H25        -17.8170    32.0320    19.3790 hn         1 Q1Y       0.345800
     62 H27        -15.5130    26.7180    19.1120 hn         1 Q1Y       0.318500
     63 H26        -15.2440    23.8740    19.4550 hn         1 Q1Y       0.317700
     64 C25        -14.8410    26.2330    17.2430 c          1 Q1Y       0.681700
@<TRIPOS>BOND
     1     1    16 ar  
     2     1    18 ar  
     3     1    33 1   
     4     2     4 ar  
     5     2    17 ar  
     6     2    34 1   
     7     3    34 1   
     8     3    35 1   
     9     3    37 1   
    10     3    38 1   
    11     4    18 ar  
    12     4    35 1   
    13     5     6 1   
    14     5    29 1   
    15     5    39 1   
    16     5    40 1   
    17     6    13 1   
    18     6    41 1   
    19     6    42 1   
    20     7     9 ar  
    21     7    20 ar  
    22     7    64 1   
    23     8    21 1   
    24     8    22 2   
    25     8    32 1   
    26     9    10 ar  
    27     9    28 1   
    28    10    11 ar  
    29    10    43 1   
    30    11    12 ar  
    31    11    44 1   
    32    12    13 1   
    33    12    20 ar  
    34    13    14 1   
    35    13    45 1   
    36    14    15 1   
    37    14    19 1   
    38    14    46 1   
    39    15    33 1   
    40    15    47 1   
    41    15    48 1   
    42    16    17 ar  
    43    16    49 1   
    44    17    50 1   
    45    18    51 1   
    46    19    29 1   
    47    19    52 1   
    48    19    53 1   
    49    20    54 1   
    50    21    30 1   
    51    21    55 1   
    52    21    56 1   
    53    22    23 ar  
    54    22    27 ar  
    55    23    24 ar  
    56    23    57 1   
    57    24    25 ar  
    58    24    58 1   
    59    25    26 ar  
    60    25    59 1   
    61    26    27 ar  
    62    26    60 1   
    63    27    31 2   
    64    29    61 1   
    65    30    62 1   
    66    30    64 1   
    67    31    32 1   
    68    32    63 1   
    69    36    64 2   
@<TRIPOS>SUBSTRUCTURE
     1 Q1Y         1 TEMP              0 ****  ****    0 ROOT
