@<TRIPOS>MOLECULE
Q1Y
   64    69     1     0     0
SMALL
No Charge or Current Charge


@<TRIPOS>ATOM
      1 C10        -21.2770    26.9520    17.6010 ca         1 Q1Y       0.145100
      2 C13        -23.0340    24.8690    17.0130 ca         1 Q1Y       0.011100
      3 C15        -22.9360    22.6960    17.4130 c5         1 Q1Y       0.372600
      4 C17        -21.8800    24.6180    17.7010 ca         1 Q1Y       0.092100
      5 C21        -18.1900    32.1390    18.1660 c6         1 Q1Y       0.147800
      6 C22        -17.3880    31.1450    17.2930 c6         1 Q1Y      -0.109400
      7 C24        -15.3790    27.3770    15.8820 ca         1 Q1Y      -0.203600
      8 C28        -12.8260    25.7360    19.5240 cc         1 Q1Y      -0.118300
      9 C02        -15.9740    26.9400    14.6760 ca         1 Q1Y       0.224000
     10 C03        -17.2370    27.4110    14.2880 ca         1 Q1Y      -0.159000
     11 C04        -17.9290    28.3300    15.0890 ca         1 Q1Y      -0.054000
     12 C05        -17.3580    28.7880    16.2890 ca         1 Q1Y      -0.100300
     13 C06        -18.1310    29.7870    17.1670 c6         1 Q1Y      -0.009400
     14 C07        -18.4430    29.2260    18.5910 c6         1 Q1Y      -0.092700
     15 C08        -19.1920    27.8630    18.5490 c3         1 Q1Y       0.171600
     16 C11        -22.4730    27.2080    16.8900 ca         1 Q1Y      -0.157000
     17 C12        -23.3700    26.1610    16.5890 ca         1 Q1Y      -0.054000
     18 C18        -20.9710    25.6330    18.0190 ca         1 Q1Y      -0.185000
     19 C19        -19.2210    30.2800    19.4250 c6         1 Q1Y       0.151800
     20 C23        -16.0890    28.3110    16.6800 ca         1 Q1Y      -0.067000
     21 C27        -12.4980    26.5330    18.2900 c3         1 Q1Y       0.173200
     22 C29        -13.6330    24.5710    19.6370 ca         1 Q1Y      -0.131000
     23 C30        -14.3330    23.8350    18.6700 ca         1 Q1Y      -0.056000
     24 C31        -15.0600    22.7090    19.1040 ca         1 Q1Y      -0.129000
     25 C32        -15.0660    22.3520    20.4730 ca         1 Q1Y      -0.101000
     26 C33        -14.3450    23.1190    21.4160 ca         1 Q1Y      -0.081000
     27 C34        -13.6250    24.2400    20.9710 ca         1 Q1Y      -0.064000
     28 F01        -15.3660    26.0340    13.8780 f          1 Q1Y      -0.154000
     29 N20        -18.4740    31.5620    19.5020 n7         1 Q1Y      -0.842400
     30 N26        -13.7120    27.0300    17.6400 ns         1 Q1Y      -0.527900
     31 N35        -12.8620    25.1100    21.7560 nc         1 Q1Y      -0.279400
     32 N36        -12.3810    26.0280    20.8100 na         1 Q1Y       0.025500
     33 O09        -20.4440    28.0200    17.8570 os         1 Q1Y      -0.348100
     34 O14        -23.7760    23.7490    16.8180 os         1 Q1Y      -0.341100
     35 O16        -21.7460    23.3090    18.0280 os         1 Q1Y      -0.345100
     36 O37        -13.2310    26.3390    15.5390 o          1 Q1Y      -0.551100
     37 H1         -23.5080    22.1570    18.1770 h2         1 Q1Y       0.065200
     38 H2         -22.6160    22.0040    16.6250 h2         1 Q1Y       0.065200
     39 H3         -17.6200    33.0750    18.2790 h1         1 Q1Y       0.057200
     40 H4         -19.1370    32.3890    17.6630 h1         1 Q1Y       0.057200
     41 H5         -16.3910    30.9970    17.7290 hc         1 Q1Y       0.048200
     42 H6         -17.2310    31.5770    16.2950 hc         1 Q1Y       0.048200
     43 H7         -17.6820    27.0550    13.3630 ha         1 Q1Y       0.141000
     44 H8         -18.9110    28.6800    14.7760 ha         1 Q1Y       0.128000
     45 H9         -19.0930    29.9970    16.6780 hc         1 Q1Y       0.072700
     46 H10        -17.4960    29.0230    19.1080 hc         1 Q1Y       0.047700
     47 H11        -19.3600    27.5140    19.5760 h1         1 Q1Y       0.038700
     48 H12        -18.5580    27.1260    18.0380 h1         1 Q1Y       0.038700
     49 H13        -22.7010    28.2220    16.5730 ha         1 Q1Y       0.132000
     50 H14        -24.2930    26.3470    16.0450 ha         1 Q1Y       0.137000
     51 H15        -20.0680    25.3900    18.5690 ha         1 Q1Y       0.136000
     52 H16        -20.2090    30.4570    18.9720 h1         1 Q1Y       0.062200
     53 H17        -19.3930    29.8930    20.4410 h1         1 Q1Y       0.062200
     54 H18        -15.6590    28.6860    17.6040 ha         1 Q1Y       0.114000
     55 H19        -11.9270    25.8980    17.6000 h1         1 Q1Y       0.068700
     56 H20        -11.8650    27.3910    18.5550 h1         1 Q1Y       0.068700
     57 H21        -14.3170    24.1220    17.6210 ha         1 Q1Y       0.111000
     58 H22        -15.6180    22.1130    18.3850 ha         1 Q1Y       0.110000
     59 H23        -15.6290    21.4810    20.8030 ha         1 Q1Y       0.109000
     60 H24        -14.3480    22.8450    22.4690 ha         1 Q1Y       0.125000
     61 H25        -17.5790    31.3850    19.9730 hn         1 Q1Y       0.401000
     62 H27        -14.4260    27.4410    18.2250 hn         1 Q1Y       0.318500
     63 H26        -11.7810    26.8000    21.0880 hn         1 Q1Y       0.368000
     64 C25        -14.0240    26.8580    16.3100 c          1 Q1Y       0.614700
@<TRIPOS>BOND
     1     1    16 ar  
     2     1    18 ar  
     3     1    33 1   
     4     2     4 ar  
     5     2    17 ar  
     6     2    34 1   
     7     3    34 1   
     8     3    35 1   
     9     3    37 1   
    10     3    38 1   
    11     4    18 ar  
    12     4    35 1   
    13     5     6 1   
    14     5    29 1   
    15     5    39 1   
    16     5    40 1   
    17     6    13 1   
    18     6    41 1   
    19     6    42 1   
    20     7     9 ar  
    21     7    20 ar  
    22     7    64 1   
    23     8    21 1   
    24     8    22 2   
    25     8    32 1   
    26     9    10 ar  
    27     9    28 1   
    28    10    11 ar  
    29    10    43 1   
    30    11    12 ar  
    31    11    44 1   
    32    12    13 1   
    33    12    20 ar  
    34    13    14 1   
    35    13    45 1   
    36    14    15 1   
    37    14    19 1   
    38    14    46 1   
    39    15    33 1   
    40    15    47 1   
    41    15    48 1   
    42    16    17 ar  
    43    16    49 1   
    44    17    50 1   
    45    18    51 1   
    46    19    29 1   
    47    19    52 1   
    48    19    53 1   
    49    20    54 1   
    50    21    30 1   
    51    21    55 1   
    52    21    56 1   
    53    22    23 ar  
    54    22    27 ar  
    55    23    24 ar  
    56    23    57 1   
    57    24    25 ar  
    58    24    58 1   
    59    25    26 ar  
    60    25    59 1   
    61    26    27 ar  
    62    26    60 1   
    63    27    31 2   
    64    29    61 1   
    65    30    62 1   
    66    30    64 1   
    67    31    32 1   
    68    32    63 1   
    69    36    64 2   
@<TRIPOS>SUBSTRUCTURE
     1 Q1Y         1 TEMP              0 ****  ****    0 ROOT
