@<TRIPOS>MOLECULE
Q1Z
   17    16     1     0     0
SMALL
No Charge or Current Charge


@<TRIPOS>ATOM
      1 C01        -10.3720     8.4240   -14.7620 c          1 Q1Z       0.435100
      2 C02        -10.7590     8.3520   -13.2610 c3         1 Q1Z      -0.150700
      3 C03        -10.7710     9.7700   -12.6040 c3         1 Q1Z      -0.186400
      4 C04        -12.0820     7.5700   -13.0750 c3         1 Q1Z      -0.060100
      5 C05         -9.0310     7.6270   -15.2100 c          1 Q1Z       0.640000
      6 C06        -10.8270     9.6990   -11.0630 c          1 Q1Z       0.718000
      7 O01        -11.0620     9.0610   -15.5680 o          1 Q1Z      -0.606100
      8 O02         -8.2490     8.1790   -15.9810 o          1 Q1Z      -0.717500
      9 O03         -8.8490     6.4900   -14.7790 o          1 Q1Z      -0.717500
     10 O04         -9.7750     9.5660   -10.4560 o          1 Q1Z      -0.764500
     11 O05        -11.9170     9.7530   -10.5140 o          1 Q1Z      -0.764500
     12 H01         -9.9730     7.7690   -12.7650 hc         1 Q1Z       0.094700
     13 H02         -9.8220    10.2280   -12.9080 hc         1 Q1Z       0.026200
     14 H03        -11.6520    10.2930   -12.9980 hc         1 Q1Z       0.026200
     15 H04        -12.2910     7.3980   -12.0130 hc         1 Q1Z       0.008367
     16 H05        -12.9260     8.1180   -13.5090 hc         1 Q1Z       0.008367
     17 H06        -12.0200     6.5920   -13.5660 hc         1 Q1Z       0.008367
@<TRIPOS>BOND
     1     1     2 1   
     2     1     5 1   
     3     1     7 2   
     4     2     3 1   
     5     2     4 1   
     6     2    12 1   
     7     3     6 1   
     8     3    13 1   
     9     3    14 1   
    10     4    15 1   
    11     4    16 1   
    12     4    17 1   
    13     5     8 1   
    14     5     9 1   
    15     6    10 1   
    16     6    11 1   
@<TRIPOS>SUBSTRUCTURE
     1 Q1Z         1 TEMP              0 ****  ****    0 ROOT
