@<TRIPOS>MOLECULE
Q1Z
   17    16     1     0     0
SMALL
abcg2


@<TRIPOS>ATOM
      1 C01        -10.4080     8.1550   -14.7210 c          1 Q1Z       0.435100
      2 C02        -10.8020     8.0930   -13.2650 c3         1 Q1Z      -0.150700
      3 C03        -10.7170     9.5110   -12.6880 c3         1 Q1Z      -0.186400
      4 C04        -12.1870     7.4930   -13.0710 c3         1 Q1Z      -0.060100
      5 C05         -8.8910     8.3060   -15.0710 c          1 Q1Z       0.640000
      6 C06        -10.8060     9.6070   -11.1470 c          1 Q1Z       0.718000
      7 O01        -11.2310     8.1040   -15.6090 o          1 Q1Z      -0.606100
      8 O02         -8.6380     8.5520   -16.2590 o          1 Q1Z      -0.717500
      9 O03         -8.0980     8.1470   -14.1250 o          1 Q1Z      -0.717500
     10 O04        -10.4530     8.6120   -10.4840 o          1 Q1Z      -0.764500
     11 O05        -11.1890    10.7060   -10.6980 o          1 Q1Z      -0.764500
     12 H01        -10.0620     7.4860   -12.7420 hc         1 Q1Z       0.094700
     13 H02         -9.7640     9.9690   -12.9750 hc         1 Q1Z       0.026200
     14 H03        -11.4960    10.1360   -13.1360 hc         1 Q1Z       0.026200
     15 H04        -12.4210     7.4280   -12.0090 hc         1 Q1Z       0.008367
     16 H05        -12.9590     8.0990   -13.5470 hc         1 Q1Z       0.008367
     17 H06        -12.2560     6.4850   -13.4850 hc         1 Q1Z       0.008367
@<TRIPOS>BOND
     1     1     2 1   
     2     1     5 1   
     3     1     7 2   
     4     2     3 1   
     5     2     4 1   
     6     2    12 1   
     7     3     6 1   
     8     3    13 1   
     9     3    14 1   
    10     4    15 1   
    11     4    16 1   
    12     4    17 1   
    13     5     8 1   
    14     5     9 1   
    15     6    10 1   
    16     6    11 1   
@<TRIPOS>SUBSTRUCTURE
     1 Q1Z         1 TEMP              0 ****  ****    0 ROOT
