@<TRIPOS>MOLECULE
Q20
   42    44     1     0     0
SMALL
bcc


@<TRIPOS>ATOM
      1 C1          -4.0370     0.2590    -0.7480 ca         1 Q20       0.770200
      2 N2          -4.8060    -0.3640     0.1190 nb         1 Q20      -0.871000
      3 C3          -4.2090    -1.0710     1.1010 ca         1 Q20       0.943900
      4 N4          -2.9160    -1.2110     1.3000 nb         1 Q20      -0.816000
      5 C5          -2.1080    -0.5810     0.4160 ca         1 Q20       0.492600
      6 C6          -2.6010     0.1870    -0.6540 ca         1 Q20      -0.347600
      7 C7          -1.7080     0.8160    -1.5370 ca         1 Q20      -0.080000
      8 C8          -0.3440     0.7130    -1.3880 ca         1 Q20      -0.089300
      9 C9           0.1520    -0.0600    -0.3080 cp         1 Q20       0.018000
     10 C10         -0.7090    -0.6860     0.5610 ca         1 Q20      -0.187300
     11 N11         -4.6340     0.9680    -1.7090 nv         1 Q20      -0.970500
     12 N12         -5.0530    -1.7230     1.9350 nv         1 Q20      -0.944500
     13 C13          0.5880     1.3790    -2.3560 c3         1 Q20      -0.039800
     14 C14          1.6130    -0.2310    -0.1160 cp         1 Q20      -0.100000
     15 C15          2.3800     0.7970     0.4600 ca         1 Q20       0.195100
     16 C16          3.7550     0.6250     0.6520 ca         1 Q20      -0.245000
     17 C17          4.3610    -0.5560     0.2740 ca         1 Q20      -0.020000
     18 C18          3.6150    -1.5860    -0.2950 ca         1 Q20      -0.248600
     19 C19          2.2430    -1.4060    -0.4780 ca         1 Q20      -0.035000
     20 O20          1.7100     1.8990     0.7960 os         1 Q20      -0.312900
     21 C21          2.3980     2.9950     1.3940 c3         1 Q20       0.140400
     22 C22          1.3940     4.0970     1.6260 c3         1 Q20      -0.095100
     23 C23          4.2270    -2.8480    -0.7060 c          1 Q20       0.591500
     24 O24          5.4040    -3.1170    -0.5990 o          1 Q20      -0.528100
     25 H7          -2.0830     1.3960    -2.3720 ha         1 Q20       0.116000
     26 H10         -0.3220    -1.2730     1.3850 ha         1 Q20       0.152000
     27 HN11        -5.6370     0.9580    -1.7790 hn         1 Q20       0.443300
     28 HN1A        -4.1260     1.4200    -2.4470 hn         1 Q20       0.443300
     29 HN12        -6.0160    -1.4340     1.9550 hn         1 Q20       0.431800
     30 HN1B        -4.6790    -2.0790     2.7970 hn         1 Q20       0.431800
     31 H13          1.2280     2.1130    -1.8630 hc         1 Q20       0.041033
     32 H13A         1.2450     0.6580    -2.8450 hc         1 Q20       0.041033
     33 H13B         0.0320     1.8980    -3.1360 hc         1 Q20       0.041033
     34 H16          4.3560     1.4040     1.1000 ha         1 Q20       0.140000
     35 H17          5.4260    -0.6780     0.4270 ha         1 Q20       0.149000
     36 H19          1.6560    -2.2030    -0.9220 ha         1 Q20       0.141000
     37 H21          2.8530     2.6790     2.3370 h1         1 Q20       0.036700
     38 H21A         3.2000     3.3410     0.7350 h1         1 Q20       0.036700
     39 H22          1.8900     4.9400     2.1060 hc         1 Q20       0.049700
     40 H22A         0.9650     4.4480     0.6880 hc         1 Q20       0.049700
     41 H22B         0.5860     3.7690     2.2790 hc         1 Q20       0.049700
     42 H23          3.5200    -3.5760    -1.1420 h4         1 Q20      -0.013800
@<TRIPOS>BOND
     1     1     2 ar  
     2     1     6 ar  
     3     1    11 1   
     4     2     3 ar  
     5     3     4 ar  
     6     3    12 1   
     7     4     5 ar  
     8     5     6 ar  
     9     5    10 ar  
    10     6     7 ar  
    11     7     8 ar  
    12     7    25 1   
    13     8     9 ar  
    14     8    13 1   
    15     9    10 ar  
    16     9    14 1   
    17    10    26 1   
    18    11    27 1   
    19    11    28 1   
    20    12    29 1   
    21    12    30 1   
    22    13    31 1   
    23    13    32 1   
    24    13    33 1   
    25    14    15 ar  
    26    14    19 ar  
    27    15    16 ar  
    28    15    20 1   
    29    16    17 ar  
    30    16    34 1   
    31    17    18 ar  
    32    17    35 1   
    33    18    19 ar  
    34    18    23 1   
    35    19    36 1   
    36    20    21 1   
    37    21    22 1   
    38    21    37 1   
    39    21    38 1   
    40    22    39 1   
    41    22    40 1   
    42    22    41 1   
    43    23    24 2   
    44    23    42 1   
@<TRIPOS>SUBSTRUCTURE
     1 Q20         1 TEMP              0 ****  ****    0 ROOT
