@<TRIPOS>MOLECULE
Q20
   42    44     1     0     0
SMALL
No Charge or Current Charge


@<TRIPOS>ATOM
      1 C1          -4.0590     0.2920    -0.6970 ca         1 Q20       0.441900
      2 N2          -4.8830    -0.4080     0.0860 nb         1 Q20      -0.345000
      3 C3          -4.2890    -1.2070     0.9740 ca         1 Q20       0.417900
      4 N4          -2.9770    -1.3860     1.1710 nb         1 Q20      -0.290000
      5 C5          -2.1390    -0.6810     0.3830 ca         1 Q20       0.099000
      6 C6          -2.6530     0.2000    -0.5970 ca         1 Q20      -0.217000
      7 C7          -1.7700     0.9350    -1.4170 ca         1 Q20      -0.062000
      8 C8          -0.3750     0.8010    -1.2730 ca         1 Q20      -0.089300
      9 C9           0.1510    -0.0730    -0.2830 cp         1 Q20       0.018000
     10 C10         -0.7480    -0.8070     0.5230 ca         1 Q20      -0.104000
     11 N11         -4.7000     1.0860    -1.5950 nv         1 Q20      -1.080900
     12 N12         -5.1160    -1.9160     1.7730 nv         1 Q20      -1.054900
     13 C13          0.5320     1.6000    -2.2050 c3         1 Q20      -0.039800
     14 C14          1.6200    -0.2510    -0.0810 cp         1 Q20      -0.100000
     15 C15          2.4340     0.7840     0.4440 ca         1 Q20       0.195100
     16 C16          3.8200     0.5870     0.6200 ca         1 Q20      -0.227000
     17 C17          4.4050    -0.6440     0.2820 ca         1 Q20      -0.002000
     18 C18          3.6100    -1.6890    -0.2310 ca         1 Q20      -0.248600
     19 C19          2.2270    -1.4870    -0.4050 ca         1 Q20      -0.017000
     20 O20          1.8070     1.9670     0.7830 os         1 Q20      -0.336100
     21 C21          2.5290     3.1090     1.2660 c3         1 Q20       0.163600
     22 C22          1.5090     4.2350     1.4940 c3         1 Q20      -0.095100
     23 C23          4.2200    -3.0150    -0.5940 c          1 Q20       0.591500
     24 O24          5.4150    -3.2630    -0.4690 o          1 Q20      -0.528100
     25 H7          -2.1560     1.6150    -2.1720 ha         1 Q20       0.098000
     26 H10         -0.3510    -1.4810     1.2780 ha         1 Q20       0.134000
     27 HN11        -5.6950     0.9270    -1.7320 hn         1 Q20       0.498500
     28 HN1A        -4.1840     1.4220    -2.4020 hn         1 Q20       0.498500
     29 HN12        -6.0930    -1.6390     1.8150 hn         1 Q20       0.487000
     30 HN1B        -4.7270    -2.3520     2.6050 hn         1 Q20       0.487000
     31 H13          0.8460     2.5400    -1.7360 hc         1 Q20       0.041033
     32 H13A         1.4350     1.0380    -2.4710 hc         1 Q20       0.041033
     33 H13B         0.0240     1.8520    -3.1430 hc         1 Q20       0.041033
     34 H16          4.4550     1.3700     1.0210 ha         1 Q20       0.122000
     35 H17          5.4760    -0.7840     0.4240 ha         1 Q20       0.131000
     36 H19          1.6080    -2.2890    -0.8040 ha         1 Q20       0.123000
     37 H21          3.0380     2.8790     2.2110 h1         1 Q20       0.036700
     38 H21A         3.2760     3.4370     0.5310 h1         1 Q20       0.036700
     39 H22          2.0140     5.1360     1.8620 hc         1 Q20       0.049700
     40 H22A         0.9960     4.4860     0.5580 hc         1 Q20       0.049700
     41 H22B         0.7590     3.9330     2.2350 hc         1 Q20       0.049700
     42 H23          3.5180    -3.7810    -0.9910 h4         1 Q20      -0.013800
@<TRIPOS>BOND
     1     1     2 ar  
     2     1     6 ar  
     3     1    11 1   
     4     2     3 ar  
     5     3     4 ar  
     6     3    12 1   
     7     4     5 ar  
     8     5     6 ar  
     9     5    10 ar  
    10     6     7 ar  
    11     7     8 ar  
    12     7    25 1   
    13     8     9 ar  
    14     8    13 1   
    15     9    10 ar  
    16     9    14 1   
    17    10    26 1   
    18    11    27 1   
    19    11    28 1   
    20    12    29 1   
    21    12    30 1   
    22    13    31 1   
    23    13    32 1   
    24    13    33 1   
    25    14    15 ar  
    26    14    19 ar  
    27    15    16 ar  
    28    15    20 1   
    29    16    17 ar  
    30    16    34 1   
    31    17    18 ar  
    32    17    35 1   
    33    18    19 ar  
    34    18    23 1   
    35    19    36 1   
    36    20    21 1   
    37    21    22 1   
    38    21    37 1   
    39    21    38 1   
    40    22    39 1   
    41    22    40 1   
    42    22    41 1   
    43    23    24 2   
    44    23    42 1   
@<TRIPOS>SUBSTRUCTURE
     1 Q20         1 TEMP              0 ****  ****    0 ROOT
