@<TRIPOS>MOLECULE
Q21
   50    54     1     0     0
SMALL
No Charge or Current Charge


@<TRIPOS>ATOM
      1 O2           1.5470    -1.6160    -0.6040 o          1 Q21      -0.543100
      2 C13          1.4180    -0.3940    -0.6140 c          1 Q21       0.608100
      3 C14          2.6290     0.5790    -0.6820 c3         1 Q21       0.096300
      4 C15          2.8550     1.0820    -2.1310 c3         1 Q21      -0.124100
      5 O3           3.8460    -0.0820    -0.2520 os         1 Q21      -0.322100
      6 C16          5.0230     0.5800     0.0590 ca         1 Q21       0.161100
      7 C17          5.0710     1.9840     0.2210 ca         1 Q21      -0.219000
      8 C18          6.2790     2.6210     0.5450 ca         1 Q21      -0.071000
      9 C19          7.4490     1.8670     0.7160 ca         1 Q21      -0.134000
     10 C21          6.2030    -0.1810     0.2400 ca         1 Q21      -0.056000
     11 C46          6.1940    -1.5880     0.0960 ca         1 Q21      -0.070000
     12 C45          7.3750    -2.3290     0.2750 ca         1 Q21      -0.124000
     13 C44          8.5750    -1.6770     0.6000 ca         1 Q21      -0.092000
     14 C43          8.5950    -0.2800     0.7450 ca         1 Q21      -0.114000
     15 C20          7.4170     0.4690     0.5670 ca         1 Q21      -0.007000
     16 N3           0.1920     0.2510    -0.4930 ns         1 Q21      -0.163000
     17 C10         -1.1430    -0.2360    -0.4040 ca         1 Q21      -0.042000
     18 C11         -1.4930    -1.6020    -0.6030 ca         1 Q21      -0.089000
     19 C12         -2.8380    -2.0190    -0.5060 ca         1 Q21      -0.072000
     20 C7          -3.8030    -1.0500    -0.2130 ca         1 Q21       0.018100
     21 C8          -3.4860     0.2610    -0.0260 ca         1 Q21       0.073400
     22 C9          -2.1610     0.7050    -0.1170 ca         1 Q21      -0.091000
     23 O1          -5.1370    -1.2460    -0.0810 os         1 Q21      -0.269700
     24 C1          -5.5700     0.0470     0.1980 cc         1 Q21       0.586200
     25 N1          -4.6160     0.9980     0.2430 nd         1 Q21      -0.565100
     26 C2          -7.0080     0.2650     0.4160 ca         1 Q21      -0.080900
     27 C3          -7.9400    -0.7960     0.3490 ca         1 Q21      -0.124500
     28 C4          -9.3050    -0.5380     0.5650 ca         1 Q21       0.329400
     29 N2          -9.7890     0.6950     0.8390 nb         1 Q21      -0.650000
     30 C5          -8.9040     1.7170     0.9050 ca         1 Q21       0.329400
     31 C6          -7.5230     1.5480     0.7030 ca         1 Q21      -0.124500
     32 H1           2.3890     1.4230    -0.0240 h1         1 Q21       0.052700
     33 H2           3.0860     0.2430    -2.7990 hc         1 Q21       0.055700
     34 H3           1.9550     1.5820    -2.5100 hc         1 Q21       0.055700
     35 H4           3.6810     1.7990    -2.1830 hc         1 Q21       0.055700
     36 H5           4.1840     2.5990     0.1030 ha         1 Q21       0.112000
     37 H6           6.3090     3.7020     0.6660 ha         1 Q21       0.111000
     38 H7           8.3800     2.3700     0.9670 ha         1 Q21       0.116000
     39 H8           5.2760    -2.1140    -0.1560 ha         1 Q21       0.137000
     40 H9           7.3580    -3.4110     0.1630 ha         1 Q21       0.115000
     41 H10          9.4870    -2.2520     0.7380 ha         1 Q21       0.113000
     42 H11          9.5290     0.2190     0.9960 ha         1 Q21       0.113000
     43 H12          0.2580     1.2610    -0.4730 hn         1 Q21       0.154000
     44 H13         -0.7440    -2.3500    -0.8420 ha         1 Q21       0.144000
     45 H14         -3.1180    -3.0590    -0.6560 ha         1 Q21       0.140000
     46 H15         -1.9270     1.7560     0.0360 ha         1 Q21       0.134000
     47 H16         -7.6240    -1.8130     0.1330 ha         1 Q21       0.142500
     48 H17        -10.0350    -1.3450     0.5170 h4         1 Q21       0.024600
     49 H18         -9.3150     2.7010     1.1270 h4         1 Q21       0.024600
     50 H19         -6.8690     2.4130     0.7710 ha         1 Q21       0.142500
@<TRIPOS>BOND
     1     1     2 2   
     2     2     3 1   
     3     2    16 1   
     4     3     4 1   
     5     3     5 1   
     6     3    32 1   
     7     4    33 1   
     8     4    34 1   
     9     4    35 1   
    10     5     6 1   
    11     6     7 ar  
    12     6    10 ar  
    13     7     8 ar  
    14     7    36 1   
    15     8     9 ar  
    16     8    37 1   
    17     9    15 ar  
    18     9    38 1   
    19    10    11 ar  
    20    10    15 ar  
    21    11    12 ar  
    22    11    39 1   
    23    12    13 ar  
    24    12    40 1   
    25    13    14 ar  
    26    13    41 1   
    27    14    15 ar  
    28    14    42 1   
    29    16    17 1   
    30    16    43 1   
    31    17    18 ar  
    32    17    22 ar  
    33    18    19 ar  
    34    18    44 1   
    35    19    20 ar  
    36    19    45 1   
    37    20    21 ar  
    38    20    23 1   
    39    21    22 ar  
    40    21    25 1   
    41    22    46 1   
    42    23    24 1   
    43    24    25 2   
    44    24    26 1   
    45    26    27 ar  
    46    26    31 ar  
    47    27    28 ar  
    48    27    47 1   
    49    28    29 ar  
    50    28    48 1   
    51    29    30 ar  
    52    30    31 ar  
    53    30    49 1   
    54    31    50 1   
@<TRIPOS>SUBSTRUCTURE
     1 Q21         1 TEMP              0 ****  ****    0 ROOT
