@<TRIPOS>MOLECULE
Q21
   50    54     1     0     0
SMALL
bcc


@<TRIPOS>ATOM
      1 O2           1.4410    -1.0750    -0.5760 o          1 Q21      -0.543100
      2 C13          1.3910     0.0660    -0.1670 c          1 Q21       0.675100
      3 C14          2.5970     1.0040    -0.2030 c3         1 Q21       0.073100
      4 C15          2.5340     1.8810    -1.4490 c3         1 Q21      -0.124100
      5 O3           3.7240     0.1600    -0.2090 os         1 Q21      -0.298900
      6 C16          4.9450     0.6420     0.0870 ca         1 Q21       0.161100
      7 C17          5.2100     1.9110     0.5370 ca         1 Q21      -0.237000
      8 C18          6.5370     2.2940     0.8280 ca         1 Q21      -0.089000
      9 C19          7.5770     1.4250     0.6690 ca         1 Q21      -0.152000
     10 C21          6.0070    -0.2970    -0.0880 ca         1 Q21      -0.056000
     11 C46          5.7740    -1.6150    -0.5450 ca         1 Q21      -0.088000
     12 C45          6.8160    -2.4900    -0.7040 ca         1 Q21      -0.142000
     13 C44          8.1360    -2.0890    -0.4130 ca         1 Q21      -0.110000
     14 C43          8.3850    -0.8190     0.0320 ca         1 Q21      -0.132000
     15 C20          7.3330     0.1090     0.2080 ca         1 Q21      -0.007000
     16 N3           0.2760     0.6580     0.3220 ns         1 Q21      -0.489100
     17 C10         -1.0160     0.1010     0.3470 ca         1 Q21       0.050600
     18 C11         -1.2190    -1.2330     0.7410 ca         1 Q21      -0.107000
     19 C12         -2.4890    -1.7850     0.8050 ca         1 Q21      -0.090000
     20 C7          -3.5320    -0.9450     0.4760 ca         1 Q21       0.018100
     21 C8          -3.3580     0.3790     0.0960 ca         1 Q21       0.073400
     22 C9          -2.0830     0.9250     0.0170 ca         1 Q21      -0.109000
     23 O1          -4.8640    -1.1950     0.4570 os         1 Q21      -0.269700
     24 C1          -5.4270    -0.0310     0.0710 cc         1 Q21       0.586200
     25 N1          -4.5980     0.9270    -0.1560 nd         1 Q21      -0.565100
     26 C2          -6.8780     0.0220    -0.0410 ca         1 Q21      -0.080900
     27 C3          -7.6850    -1.0520     0.3210 ca         1 Q21      -0.207800
     28 C4          -9.0590    -0.9150     0.1910 ca         1 Q21       0.394700
     29 N2          -9.6490     0.1840    -0.2610 nb         1 Q21      -0.650000
     30 C5          -8.8710     1.2040    -0.6060 ca         1 Q21       0.394700
     31 C6          -7.4900     1.1780    -0.5160 ca         1 Q21      -0.207800
     32 H1           2.5860     1.6270     0.6990 h1         1 Q21       0.052700
     33 H2           2.4970     1.2680    -2.3500 hc         1 Q21       0.055700
     34 H3           1.6470     2.5120    -1.4270 hc         1 Q21       0.055700
     35 H4           3.4010     2.5370    -1.5150 hc         1 Q21       0.055700
     36 H5           4.4250     2.6410     0.6790 ha         1 Q21       0.130000
     37 H6           6.7180     3.3010     1.1810 ha         1 Q21       0.129000
     38 H7           8.5920     1.7300     0.8900 ha         1 Q21       0.134000
     39 H8           4.7670    -1.9370    -0.7720 ha         1 Q21       0.155000
     40 H9           6.6260    -3.4950    -1.0550 ha         1 Q21       0.133000
     41 H10          8.9510    -2.7890    -0.5430 ha         1 Q21       0.131000
     42 H11          9.3970    -0.5060     0.2560 ha         1 Q21       0.131000
     43 H12          0.3420     1.6300     0.5860 hn         1 Q21       0.320500
     44 H13         -0.3750    -1.8450     1.0210 ha         1 Q21       0.162000
     45 H14         -2.6400    -2.8110     1.1100 ha         1 Q21       0.158000
     46 H15         -1.9290     1.9530    -0.2860 ha         1 Q21       0.152000
     47 H16         -7.2760    -1.9780     0.7010 ha         1 Q21       0.160500
     48 H17         -9.7070    -1.7380     0.4700 h4         1 Q21       0.024600
     49 H18         -9.3690     2.0930    -0.9750 h4         1 Q21       0.024600
     50 H19         -6.9080     2.0390    -0.8140 ha         1 Q21       0.160500
@<TRIPOS>BOND
     1     1     2 2   
     2     2     3 1   
     3     2    16 1   
     4     3     4 1   
     5     3     5 1   
     6     3    32 1   
     7     4    33 1   
     8     4    34 1   
     9     4    35 1   
    10     5     6 1   
    11     6     7 ar  
    12     6    10 ar  
    13     7     8 ar  
    14     7    36 1   
    15     8     9 ar  
    16     8    37 1   
    17     9    15 ar  
    18     9    38 1   
    19    10    11 ar  
    20    10    15 ar  
    21    11    12 ar  
    22    11    39 1   
    23    12    13 ar  
    24    12    40 1   
    25    13    14 ar  
    26    13    41 1   
    27    14    15 ar  
    28    14    42 1   
    29    16    17 1   
    30    16    43 1   
    31    17    18 ar  
    32    17    22 ar  
    33    18    19 ar  
    34    18    44 1   
    35    19    20 ar  
    36    19    45 1   
    37    20    21 ar  
    38    20    23 1   
    39    21    22 ar  
    40    21    25 1   
    41    22    46 1   
    42    23    24 1   
    43    24    25 2   
    44    24    26 1   
    45    26    27 ar  
    46    26    31 ar  
    47    27    28 ar  
    48    27    47 1   
    49    28    29 ar  
    50    28    48 1   
    51    29    30 ar  
    52    30    31 ar  
    53    30    49 1   
    54    31    50 1   
@<TRIPOS>SUBSTRUCTURE
     1 Q21         1 TEMP              0 ****  ****    0 ROOT
