@<TRIPOS>MOLECULE
Q22
   48    52     1     0     0
SMALL
abcg2


@<TRIPOS>ATOM
      1 C7          -1.9990     0.6050    -2.2730 ca         1 Q22       0.086900
      2 N8          -3.2870     0.7530    -2.0800 nb         1 Q22      -0.112000
      3 C8          -3.7870     0.3050    -0.9110 ca         1 Q22       0.113000
      4 N1          -5.1000     0.4430    -0.6780 nb         1 Q22      -0.277000
      5 C2          -5.5270    -0.0090     0.4920 ca         1 Q22       0.448900
      6 N2          -6.8330     0.1200     0.7670 nv         1 Q22      -1.064900
      7 N3          -4.7890    -0.5830     1.4720 nb         1 Q22      -0.353000
      8 C4          -3.5020    -0.7270     1.2600 ca         1 Q22       0.462900
      9 N4          -2.7190    -1.2750     2.1810 nv         1 Q22      -1.057900
     10 C5          -2.9130    -0.2830     0.0180 ca         1 Q22       0.027000
     11 N5          -1.6110    -0.4340    -0.1990 nb         1 Q22      -0.587000
     12 C6          -1.1300     0.0020    -1.3410 ca         1 Q22       0.234300
     13 C9           0.3390    -0.1680    -1.6380 c3         1 Q22       0.191500
     14 N'0          1.1550     0.0510    -0.4700 nh         1 Q22      -0.835400
     15 C'0          1.2110     1.4060     0.0460 c6         1 Q22       0.316900
     16 C'1          0.8330     1.4500     1.5010 c2         1 Q22      -0.205200
     17 C'2          1.4040     2.2550     2.3890 c2         1 Q22      -0.222200
     18 C'3          2.5110     3.1930     2.0370 c6         1 Q22      -0.012000
     19 C'4          3.0760     2.9290     0.6800 c2         1 Q22      -0.191200
     20 C'5          2.5320     2.1010    -0.2120 ce         1 Q22      -0.116200
     21 C'6          3.2230     1.8300    -1.4880 ce         1 Q22      -0.158000
     22 C10          3.6430     0.6170    -1.8570 cf         1 Q22      -0.166200
     23 C'7          3.4600    -0.5880    -1.0410 ca         1 Q22      -0.032800
     24 C'8          4.4850    -1.5300    -0.9710 ca         1 Q22      -0.195000
     25 C3           2.2780    -0.7920    -0.3160 ca         1 Q22       0.253000
     26 C12          2.1750    -1.9190     0.4920 ca         1 Q22      -0.061000
     27 C11          3.2010    -2.8450     0.5830 ca         1 Q22      -0.144000
     28 C'9          4.3620    -2.6550    -0.1620 ca         1 Q22       0.137100
     29 O1           5.3320    -3.5880    -0.0670 oh         1 Q22      -0.535100
     30 H7          -1.5970     0.9770    -3.2110 h4         1 Q22       0.026100
     31 HN2         -7.4660     0.4410     0.0570 hn         1 Q22       0.505000
     32 HN2A        -7.2160    -0.3000     1.5950 hn         1 Q22       0.505000
     33 HN4         -3.1020    -1.6220     3.0440 hn         1 Q22       0.512000
     34 HN4A        -1.7410    -1.4150     1.9900 hn         1 Q22       0.512000
     35 H9           0.5030    -1.1930    -1.9810 h1         1 Q22       0.047200
     36 H9'A         0.6060     0.4780    -2.4870 h1         1 Q22       0.047200
     37 H'0          0.4440     1.9660    -0.5080 h1         1 Q22       0.065700
     38 H'1          0.0250     0.7880     1.7930 ha         1 Q22       0.185000
     39 H'2          1.0670     2.2480     3.4200 ha         1 Q22       0.174000
     40 H'3          2.1570     4.2300     2.1020 hc         1 Q22       0.056700
     41 H'3A         3.3100     3.1310     2.7830 hc         1 Q22       0.056700
     42 H'4          4.0090     3.4280     0.4360 ha         1 Q22       0.173000
     43 H6           4.2280     0.5160    -2.7660 ha         1 Q22       0.178000
     44 H'8          5.3890    -1.3770    -1.5520 ha         1 Q22       0.112000
     45 H2           1.2550    -2.0750     1.0420 ha         1 Q22       0.125000
     46 H11          3.1010    -3.7190     1.2150 ha         1 Q22       0.129000
     47 HO1          6.0790    -3.3550    -0.6290 ho         1 Q22       0.464000
     48 H19          3.4710     2.6790    -2.1170 ha         1 Q22       0.179000
@<TRIPOS>BOND
     1     1     2 ar  
     2     1    12 ar  
     3     1    30 1   
     4     2     3 ar  
     5     3     4 ar  
     6     3    10 ar  
     7     4     5 ar  
     8     5     6 1   
     9     5     7 ar  
    10     6    31 1   
    11     6    32 1   
    12     7     8 ar  
    13     8     9 1   
    14     8    10 ar  
    15     9    33 1   
    16     9    34 1   
    17    10    11 ar  
    18    11    12 ar  
    19    12    13 1   
    20    13    14 1   
    21    13    35 1   
    22    13    36 1   
    23    14    15 1   
    24    14    25 1   
    25    15    16 1   
    26    15    20 1   
    27    15    37 1   
    28    16    17 2   
    29    16    38 1   
    30    17    18 1   
    31    17    39 1   
    32    18    19 1   
    33    18    40 1   
    34    18    41 1   
    35    19    20 2   
    36    19    42 1   
    37    20    21 1   
    38    21    22 2   
    39    21    48 1   
    40    22    23 1   
    41    22    43 1   
    42    23    24 ar  
    43    23    25 ar  
    44    24    28 ar  
    45    24    44 1   
    46    25    26 ar  
    47    26    27 ar  
    48    26    45 1   
    49    27    28 ar  
    50    27    46 1   
    51    28    29 1   
    52    29    47 1   
@<TRIPOS>SUBSTRUCTURE
     1 Q22         1 TEMP              0 ****  ****    0 ROOT
