@<TRIPOS>MOLECULE
Q22
   48    52     1     0     0
SMALL
bcc


@<TRIPOS>ATOM
      1 H7          -1.9990     0.6050    -2.2730 ca         1 Q22      -0.050000
      2 H8          -3.2870     0.7530    -2.0800 nb         1 Q22      -0.112000
      3 H8          -3.7870     0.3050    -0.9110 ca         1 Q22       0.113000
      4 H1          -5.1000     0.4430    -0.6780 nb         1 Q22      -0.277000
      5 H2          -5.5270    -0.0090     0.4920 ca         1 Q22       0.256000
      6 H2          -6.8330     0.1200     0.7670 nv         1 Q22      -0.352000
      7 H3          -4.7890    -0.5830     1.4720 nb         1 Q22      -0.353000
      8 H4          -3.5020    -0.7270     1.2600 ca         1 Q22       0.270000
      9 H4          -2.7190    -1.2750     2.1810 nv         1 Q22      -0.345000
     10 H5          -2.9130    -0.2830     0.0180 ca         1 Q22      -0.236000
     11 H5          -1.6110    -0.4340    -0.1990 nb         1 Q22      -0.061000
     12 H6          -1.1300     0.0020    -1.3410 ca         1 Q22      -0.123000
     13 H9           0.3390    -0.1680    -1.6380 c3         1 Q22       0.049000
     14 H'0          1.1550     0.0510    -0.4700 nh         1 Q22      -0.299000
     15 H'0          1.2110     1.4060     0.0460 c6         1 Q22       0.111000
     16 H'1          0.8330     1.4500     1.5010 c2         1 Q22      -0.151000
     17 H'2          1.4040     2.2550     2.3890 c2         1 Q22      -0.168000
     18 H'3          2.5110     3.1930     2.0370 c6         1 Q22      -0.099000
     19 H'4          3.0760     2.9290     0.6800 c2         1 Q22      -0.137000
     20 H'5          2.5320     2.1010    -0.2120 c2         1 Q22      -0.112000
     21 H'6          3.2230     1.8300    -1.4880 c2         1 Q22      -0.108000
     22 H10          3.6430     0.6170    -1.8570 c2         1 Q22      -0.128000
     23 H'7          3.4600    -0.5880    -1.0410 ca         1 Q22      -0.021000
     24 H'8          4.4850    -1.5300    -0.9710 ca         1 Q22      -0.213000
     25 H3           2.2780    -0.7920    -0.3160 ca         1 Q22       0.033000
     26 H12          2.1750    -1.9190     0.4920 ca         1 Q22      -0.079000
     27 H11          3.2010    -2.8450     0.5830 ca         1 Q22      -0.162000
     28 H'9          4.3620    -2.6550    -0.1620 ca         1 Q22       0.092000
     29 H1           5.3320    -3.5880    -0.0670 oh         1 Q22      -0.250000
     30 H7          -1.5970     0.9770    -3.2110 ha         1 Q22       0.163000
     31 HN2         -7.4660     0.4410     0.0570 ha         1 Q22       0.245000
     32 HN2A        -7.2160    -0.3000     1.5950 ha         1 Q22       0.245000
     33 HN4         -3.1020    -1.6220     3.0440 ha         1 Q22       0.252000
     34 HN4A        -1.7410    -1.4150     1.9900 ha         1 Q22       0.252000
     35 H9           0.5030    -1.1930    -1.9810 ha         1 Q22       0.086500
     36 H9'A         0.6060     0.4780    -2.4870 ha         1 Q22       0.086500
     37 H'0          0.4440     1.9660    -0.5080 ha         1 Q22       0.105000
     38 H'1          0.0250     0.7880     1.7930 ha         1 Q22       0.135000
     39 H'2          1.0670     2.2480     3.4200 ha         1 Q22       0.124000
     40 H'3          2.1570     4.2300     2.1020 ha         1 Q22       0.096000
     41 H'3A         3.3100     3.1310     2.7830 ha         1 Q22       0.096000
     42 H'4          4.0090     3.4280     0.4360 ha         1 Q22       0.123000
     43 H6           4.2280     0.5160    -2.7660 ha         1 Q22       0.128000
     44 H'8          5.3890    -1.3770    -1.5520 ha         1 Q22       0.130000
     45 H2           1.2550    -2.0750     1.0420 ha         1 Q22       0.143000
     46 H11          3.1010    -3.7190     1.2150 ha         1 Q22       0.147000
     47 HO1          6.0790    -3.3550    -0.6290 ha         1 Q22       0.224000
     48 H19          3.4710     2.6790    -2.1170 ha         1 Q22       0.129000
@<TRIPOS>BOND
     1     1     2 ar  
     2     1    12 ar  
     3     1    30 1   
     4     2     3 ar  
     5     3     4 ar  
     6     3    10 ar  
     7     4     5 ar  
     8     5     6 1   
     9     5     7 ar  
    10     6    31 1   
    11     6    32 1   
    12     7     8 ar  
    13     8     9 1   
    14     8    10 ar  
    15     9    33 1   
    16     9    34 1   
    17    10    11 ar  
    18    11    12 ar  
    19    12    13 1   
    20    13    14 1   
    21    13    35 1   
    22    13    36 1   
    23    14    15 1   
    24    14    25 1   
    25    15    16 1   
    26    15    20 1   
    27    15    37 1   
    28    16    17 2   
    29    16    38 1   
    30    17    18 1   
    31    17    39 1   
    32    18    19 1   
    33    18    40 1   
    34    18    41 1   
    35    19    20 2   
    36    19    42 1   
    37    20    21 1   
    38    21    22 2   
    39    21    48 1   
    40    22    23 1   
    41    22    43 1   
    42    23    24 ar  
    43    23    25 ar  
    44    24    28 ar  
    45    24    44 1   
    46    25    26 ar  
    47    26    27 ar  
    48    26    45 1   
    49    27    28 ar  
    50    27    46 1   
    51    28    29 1   
    52    29    47 1   
@<TRIPOS>SUBSTRUCTURE
     1 Q22         1 TEMP              0 ****  ****    0 ROOT
