@<TRIPOS>MOLECULE
Q22
   48    52     1     0     0
SMALL
No Charge or Current Charge


@<TRIPOS>ATOM
      1 C7          -1.8070     1.4150    -1.0250 ca         1 Q22       0.086900
      2 N8          -3.0110     1.6090    -0.4510 nb         1 Q22      -0.112000
      3 C8          -3.6250     0.5520     0.1290 ca         1 Q22       0.113000
      4 N1          -4.8340     0.6890     0.7170 nb         1 Q22      -0.277000
      5 C2          -5.3900    -0.3960     1.2680 ca         1 Q22       0.448900
      6 N2          -6.5990    -0.2230     1.8400 nv         1 Q22      -1.064900
      7 N3          -4.9030    -1.6330     1.3180 nb         1 Q22      -0.353000
      8 C4          -3.7060    -1.7920     0.7490 ca         1 Q22       0.462900
      9 N4          -3.2290    -3.0690     0.8130 nv         1 Q22      -1.057900
     10 C5          -2.9910    -0.7320     0.1190 ca         1 Q22       0.027000
     11 N5          -1.7720    -0.9240    -0.4670 nb         1 Q22      -0.587000
     12 C6          -1.1770     0.1570    -1.0330 ca         1 Q22       0.234300
     13 C9           0.1980    -0.0320    -1.6940 c3         1 Q22       0.191500
     14 N'0          1.3890     0.3180    -0.8670 nh         1 Q22      -0.835400
     15 C'0          1.6080     1.7450    -0.5300 c6         1 Q22       0.316900
     16 C'1          1.0680     2.0520     0.8600 c2         1 Q22      -0.205200
     17 C'2          1.4170     3.1600     1.5350 c2         1 Q22      -0.222200
     18 C'3          2.4160     4.1550     0.9670 c6         1 Q22      -0.012000
     19 C'4          3.3610     3.4760    -0.0150 c2         1 Q22      -0.191200
     20 C'5          3.0190     2.3590    -0.7000 ce         1 Q22      -0.116200
     21 C'6          3.9980     1.6710    -1.5520 ce         1 Q22      -0.158000
     22 C10          4.2620     0.3370    -1.5490 cf         1 Q22      -0.166200
     23 C'7          3.6310    -0.7270    -0.7490 ca         1 Q22      -0.032800
     24 C'8          4.4310    -1.8170    -0.3430 ca         1 Q22      -0.195000
     25 C3           2.2590    -0.6900    -0.3900 ca         1 Q22       0.253000
     26 C12          1.7270    -1.7420     0.3850 ca         1 Q22      -0.061000
     27 C11          2.5360    -2.8120     0.8020 ca         1 Q22      -0.144000
     28 C'9          3.8860    -2.8500     0.4330 ca         1 Q22       0.137100
     29 O1           4.6660    -3.8930     0.8300 oh         1 Q22      -0.535100
     30 H7          -1.3420     2.2850    -1.4840 h4         1 Q22       0.026100
     31 HN2         -7.1150     0.6240     1.6160 hn         1 Q22       0.505000
     32 HN2A        -7.1540    -1.0500     2.0490 hn         1 Q22       0.505000
     33 HN4         -3.8960    -3.8160     0.9790 hn         1 Q22       0.512000
     34 HN4A        -2.4370    -3.2870     0.2140 hn         1 Q22       0.512000
     35 H9           0.2810    -1.0790    -2.0210 h1         1 Q22       0.047200
     36 H9'A         0.2170     0.5640    -2.6170 h1         1 Q22       0.047200
     37 H'0          0.9870     2.3350    -1.2210 h1         1 Q22       0.065700
     38 H'1          0.3650     1.3320     1.2790 ha         1 Q22       0.185000
     39 H'2          1.0120     3.3710     2.5270 ha         1 Q22       0.174000
     40 H'3          1.8870     4.9840     0.4760 hc         1 Q22       0.056700
     41 H'3A         3.0020     4.5940     1.7870 hc         1 Q22       0.056700
     42 H'4          4.3600     3.9060    -0.1040 ha         1 Q22       0.173000
     43 H6           5.0760    -0.0080    -2.1900 ha         1 Q22       0.178000
     44 H'8          5.4800    -1.8460    -0.6240 ha         1 Q22       0.112000
     45 H2           0.6770    -1.7280     0.6610 ha         1 Q22       0.125000
     46 H11          2.1120    -3.6130     1.4020 ha         1 Q22       0.129000
     47 HO1          5.5730    -3.7520     0.4830 ho         1 Q22       0.464000
     48 H19          4.6290     2.3120    -2.1710 ha         1 Q22       0.179000
@<TRIPOS>BOND
     1     1     2 ar  
     2     1    12 ar  
     3     1    30 1   
     4     2     3 ar  
     5     3     4 ar  
     6     3    10 ar  
     7     4     5 ar  
     8     5     6 1   
     9     5     7 ar  
    10     6    31 1   
    11     6    32 1   
    12     7     8 ar  
    13     8     9 1   
    14     8    10 ar  
    15     9    33 1   
    16     9    34 1   
    17    10    11 ar  
    18    11    12 ar  
    19    12    13 1   
    20    13    14 1   
    21    13    35 1   
    22    13    36 1   
    23    14    15 1   
    24    14    25 1   
    25    15    16 1   
    26    15    20 1   
    27    15    37 1   
    28    16    17 2   
    29    16    38 1   
    30    17    18 1   
    31    17    39 1   
    32    18    19 1   
    33    18    40 1   
    34    18    41 1   
    35    19    20 2   
    36    19    42 1   
    37    20    21 1   
    38    21    22 2   
    39    21    48 1   
    40    22    23 1   
    41    22    43 1   
    42    23    24 ar  
    43    23    25 ar  
    44    24    28 ar  
    45    24    44 1   
    46    25    26 ar  
    47    26    27 ar  
    48    26    45 1   
    49    27    28 ar  
    50    27    46 1   
    51    28    29 1   
    52    29    47 1   
@<TRIPOS>SUBSTRUCTURE
     1 Q22         1 TEMP              0 ****  ****    0 ROOT
