@<TRIPOS>MOLECULE
Q23
   27    28     1     0     0
SMALL
No Charge or Current Charge


@<TRIPOS>ATOM
      1 C1          -2.5210     0.7640     0.2760 c5         1 Q23      -0.310400
      2 O1          -3.8730    -1.5150    -0.3110 o          1 Q23      -0.500500
      3 S1          -2.5710    -0.8740    -0.5280 sy         1 Q23       1.025100
      4 C2          -1.4010    -1.4990     0.6380 ce         1 Q23      -0.326100
      5 O2          -1.9470    -0.8060    -1.8560 o          1 Q23      -0.500500
      6 S2           1.3580     1.6810     0.4820 sy         1 Q23       1.295200
      7 C3          -0.7520    -0.5770     1.3820 c2         1 Q23      -0.125200
      8 O3          -0.2360     1.3240    -0.0160 os         1 Q23      -0.543700
      9 C4          -1.1460     0.8490     0.9910 c5         1 Q23       0.251500
     10 O4           1.3610     1.8900     1.9370 o          1 Q23      -0.522000
     11 C5           2.1090     0.0850     0.0920 ca         1 Q23      -0.326500
     12 O5           1.8730     2.6880    -0.4560 o          1 Q23      -0.522000
     13 C6           2.0450    -0.4080    -1.2280 ca         1 Q23      -0.012500
     14 C7           2.6130    -1.6560    -1.5400 ca         1 Q23      -0.130500
     15 C8           3.2460    -2.4130    -0.5400 ca         1 Q23      -0.050000
     16 C9           3.3110    -1.9230     0.7760 ca         1 Q23      -0.130500
     17 C10          2.7450    -0.6770     1.0960 ca         1 Q23      -0.012500
     18 H1          -2.6790     1.5290    -0.4900 h1         1 Q23       0.127700
     19 H1A         -3.3490     0.7690     0.9910 h1         1 Q23       0.127700
     20 H4          -1.1730     1.5460     1.8420 h1         1 Q23       0.082700
     21 H6           1.5500     0.1670    -2.0100 ha         1 Q23       0.140500
     22 H7           2.5610    -2.0360    -2.5570 ha         1 Q23       0.124500
     23 H8           3.6850    -3.3790    -0.7830 ha         1 Q23       0.121000
     24 H9           3.8010    -2.5100     1.5490 ha         1 Q23       0.124500
     25 H10          2.8050    -0.3120     2.1210 ha         1 Q23       0.140500
     26 H2          -1.3270    -2.5840     0.6920 h4         1 Q23       0.245000
     27 H3          -0.0300    -0.8210     2.1630 ha         1 Q23       0.208000
@<TRIPOS>BOND
     1     1     3 1   
     2     1     9 1   
     3     1    18 1   
     4     1    19 1   
     5     2     3 2   
     6     3     4 1   
     7     3     5 2   
     8     4     7 2   
     9     4    26 1   
    10     6     8 1   
    11     6    10 2   
    12     6    11 1   
    13     6    12 2   
    14     7     9 1   
    15     7    27 1   
    16     8     9 1   
    17     9    20 1   
    18    11    13 ar  
    19    11    17 ar  
    20    13    14 ar  
    21    13    21 1   
    22    14    15 ar  
    23    14    22 1   
    24    15    16 ar  
    25    15    23 1   
    26    16    17 ar  
    27    16    24 1   
    28    17    25 1   
@<TRIPOS>SUBSTRUCTURE
     1 Q23         1 TEMP              0 ****  ****    0 ROOT
