@<TRIPOS>MOLECULE
Q23
   27    28     1     0     0
SMALL
abcg2


@<TRIPOS>ATOM
      1 C1          -2.2910     0.7190     0.8900 c5         1 Q23      -0.310400
      2 O1          -4.5460    -0.7080     0.4900 o          1 Q23      -0.500500
      3 S1          -3.3450    -0.2590    -0.2020 sy         1 Q23       1.025100
      4 C2          -2.1670    -1.5680    -0.3430 ce         1 Q23      -0.326100
      5 O2          -3.5020     0.3950    -1.4960 o          1 Q23      -0.500500
      6 S2           1.2520     1.5790    -0.0270 sy         1 Q23       1.295200
      7 C3          -0.9850    -1.2090     0.1270 c2         1 Q23      -0.125200
      8 O3          -0.2170     0.9900    -0.3290 os         1 Q23      -0.543700
      9 C4          -0.8810     0.1940     0.6700 c5         1 Q23       0.251500
     10 O4           1.2430     2.2290     1.2660 o          1 Q23      -0.522000
     11 C5           2.2320     0.1190     0.0590 ca         1 Q23      -0.326500
     12 O5           1.5550     2.3250    -1.2240 o          1 Q23      -0.522000
     13 C6           2.5300    -0.5530    -1.1220 ca         1 Q23      -0.012500
     14 C7           3.2620    -1.7260    -1.0530 ca         1 Q23      -0.130500
     15 C8           3.6880    -2.2120     0.1780 ca         1 Q23      -0.050000
     16 C9           3.3860    -1.5270     1.3470 ca         1 Q23      -0.130500
     17 C10          2.6530    -0.3500     1.2960 ca         1 Q23      -0.012500
     18 H1          -2.4080     1.7800     0.6740 h1         1 Q23       0.127700
     19 H1A         -2.6110     0.5130     1.9110 h1         1 Q23       0.127700
     20 H4          -0.3350     0.2100     1.6150 h1         1 Q23       0.082700
     21 H6           2.2000    -0.1760    -2.0810 ha         1 Q23       0.140500
     22 H7           3.5010    -2.2610    -1.9620 ha         1 Q23       0.124500
     23 H8           4.2600    -3.1290     0.2250 ha         1 Q23       0.121000
     24 H9           3.7200    -1.9050     2.3030 ha         1 Q23       0.124500
     25 H10          2.4230     0.1840     2.2070 ha         1 Q23       0.140500
     26 H2          -2.4450    -2.5010    -0.8120 h4         1 Q23       0.245000
     27 H3          -0.1150    -1.8510     0.1060 ha         1 Q23       0.208000
@<TRIPOS>BOND
     1     1     3 1   
     2     1     9 1   
     3     1    18 1   
     4     1    19 1   
     5     2     3 2   
     6     3     4 1   
     7     3     5 2   
     8     4     7 2   
     9     4    26 1   
    10     6     8 1   
    11     6    10 2   
    12     6    11 1   
    13     6    12 2   
    14     7     9 1   
    15     7    27 1   
    16     8     9 1   
    17     9    20 1   
    18    11    13 ar  
    19    11    17 ar  
    20    13    14 ar  
    21    13    21 1   
    22    14    15 ar  
    23    14    22 1   
    24    15    16 ar  
    25    15    23 1   
    26    16    17 ar  
    27    16    24 1   
    28    17    25 1   
@<TRIPOS>SUBSTRUCTURE
     1 Q23         1 TEMP              0 ****  ****    0 ROOT
