@<TRIPOS>MOLECULE
Q24
   20    21     1     0     0
SMALL
abcg2


@<TRIPOS>ATOM
      1 N1          -0.8430    -1.4540     0.0150 nb         1 Q24      -0.294000
      2 C2          -1.8710    -0.6310     0.0240 ca         1 Q24       0.421900
      3 N3          -1.8310     0.7170     0.0140 nb         1 Q24      -0.346000
      4 C4          -0.6510     1.2980    -0.0010 ca         1 Q24       0.442900
      5 C5           1.8590     1.0660    -0.0150 ca         1 Q24      -0.055000
      6 C6           2.9610     0.2460    -0.0200 ca         1 Q24      -0.150000
      7 C7           2.7850    -1.1480    -0.0150 ca         1 Q24      -0.071000
      8 C8           1.5290    -1.7000    -0.0040 ca         1 Q24      -0.120000
      9 C4A          0.5640     0.5210    -0.0030 ca         1 Q24      -0.223000
     10 C8A          0.3810    -0.8780     0.0040 ca         1 Q24       0.103000
     11 NA2         -3.1110    -1.1670     0.0850 nv         1 Q24      -1.057900
     12 NA4         -0.6180     2.6330    -0.0220 nv         1 Q24      -1.080900
     13 H5           2.0090     2.1390    -0.0200 ha         1 Q24       0.098000
     14 H6           3.9560     0.6690    -0.0290 ha         1 Q24       0.114000
     15 H7           3.6530    -1.7960    -0.0190 ha         1 Q24       0.113000
     16 H8           1.3950    -2.7740    -0.0000 ha         1 Q24       0.130000
     17 HNA2        -3.2140    -2.1490    -0.1060 hn         1 Q24       0.489000
     18 HNAA        -3.8950    -0.5810    -0.1440 hn         1 Q24       0.489000
     19 HNA4        -1.4810     3.1480     0.0280 hn         1 Q24       0.498500
     20 HNAB         0.2350     3.1580     0.0280 hn         1 Q24       0.498500
@<TRIPOS>BOND
     1     1     2 ar  
     2     1    10 ar  
     3     2     3 ar  
     4     2    11 1   
     5     3     4 ar  
     6     4     9 ar  
     7     4    12 1   
     8     5     6 ar  
     9     5     9 ar  
    10     5    13 1   
    11     6     7 ar  
    12     6    14 1   
    13     7     8 ar  
    14     7    15 1   
    15     8    10 ar  
    16     8    16 1   
    17     9    10 ar  
    18    11    17 1   
    19    11    18 1   
    20    12    19 1   
    21    12    20 1   
@<TRIPOS>SUBSTRUCTURE
     1 Q24         1 TEMP              0 ****  ****    0 ROOT
