@<TRIPOS>MOLECULE
Q24
   20    21     1     0     0
SMALL
No Charge or Current Charge


@<TRIPOS>ATOM
      1 N1          -0.8480    -1.4380     0.0520 nb         1 Q24      -0.294000
      2 C2          -1.8830    -0.5880     0.0340 ca         1 Q24       0.421900
      3 N3          -1.8490     0.7450    -0.0120 nb         1 Q24      -0.346000
      4 C4          -0.6290     1.2880    -0.0430 ca         1 Q24       0.442900
      5 C5           1.8460     1.0720    -0.0680 ca         1 Q24      -0.055000
      6 C6           2.9730     0.2350    -0.0520 ca         1 Q24      -0.150000
      7 C7           2.8170    -1.1590     0.0000 ca         1 Q24      -0.071000
      8 C8           1.5290    -1.7190     0.0350 ca         1 Q24      -0.120000
      9 C4A          0.5490     0.5100    -0.0300 ca         1 Q24      -0.223000
     10 C8A          0.3870    -0.8970     0.0200 ca         1 Q24       0.103000
     11 NA2         -3.1130    -1.1440     0.0630 nv         1 Q24      -1.057900
     12 NA4         -0.6340     2.6460    -0.0800 nv         1 Q24      -1.080900
     13 H5           1.9920     2.1480    -0.1130 ha         1 Q24       0.098000
     14 H6           3.9710     0.6680    -0.0810 ha         1 Q24       0.114000
     15 H7           3.6920    -1.8060     0.0120 ha         1 Q24       0.113000
     16 H8           1.4150    -2.8000     0.0740 ha         1 Q24       0.130000
     17 HNA2        -3.1920    -2.1380    -0.1370 hn         1 Q24       0.489000
     18 HNAA        -3.9100    -0.5630    -0.1830 hn         1 Q24       0.489000
     19 HNA4        -1.5120     3.1150     0.1270 hn         1 Q24       0.498500
     20 HNAB         0.2120     3.1420     0.1820 hn         1 Q24       0.498500
@<TRIPOS>BOND
     1     1     2 ar  
     2     1    10 ar  
     3     2     3 ar  
     4     2    11 1   
     5     3     4 ar  
     6     4     9 ar  
     7     4    12 1   
     8     5     6 ar  
     9     5     9 ar  
    10     5    13 1   
    11     6     7 ar  
    12     6    14 1   
    13     7     8 ar  
    14     7    15 1   
    15     8    10 ar  
    16     8    16 1   
    17     9    10 ar  
    18    11    17 1   
    19    11    18 1   
    20    12    19 1   
    21    12    20 1   
@<TRIPOS>SUBSTRUCTURE
     1 Q24         1 TEMP              0 ****  ****    0 ROOT
