@<TRIPOS>MOLECULE
Q25
   44    46     1     0     0
SMALL
No Charge or Current Charge


@<TRIPOS>ATOM
      1 S1          95.2300    49.0070    13.0200 ss         1 Q25      -0.022400
      2 C2          97.9840    47.0750     7.0320 c3         1 Q25      -0.074400
      3 C3          97.0490    46.6160     8.1730 c3         1 Q25      -0.076400
      4 C4          97.0390    47.5360     9.4160 c3         1 Q25      -0.072400
      5 C5          96.4940    48.9650     9.1500 c3         1 Q25      -0.067400
      6 C7          95.0750    49.1140    11.2850 cc         1 Q25       0.446700
      7 C9          92.1940    46.9040    11.3300 c3         1 Q25       0.077700
      8 C10         91.8720    46.6120     8.8760 cc         1 Q25       0.524800
      9 C11         93.1700    45.2240     7.5710 ca         1 Q25       0.188400
     10 C12         93.5390    44.7640     6.2930 ca         1 Q25      -0.099000
     11 C16         93.8500    44.7240     8.6950 ca         1 Q25      -0.195600
     12 C1          97.9870    46.0970     5.8410 c3         1 Q25      -0.090100
     13 C6          96.1460    49.7590    10.4400 c3         1 Q25      -0.107700
     14 N1          94.0260    48.5030    10.7580 nd         1 Q25      -0.654000
     15 C8          93.3270    47.8180    11.7400 cd         1 Q25       0.251300
     16 N2          92.4790    46.1970    10.0530 n          1 Q25      -0.322300
     17 N3          92.1450    46.1740     7.6430 nd         1 Q25      -0.625100
     18 C13         94.5780    43.8300     6.1310 ca         1 Q25      -0.070000
     19 C14         95.2550    43.3410     7.2560 ca         1 Q25       0.089000
     20 Cl1         96.5670    42.1870     7.0610 cl         1 Q25      -0.197000
     21 C15         94.8900    43.7800     8.5380 ca         1 Q25      -0.034000
     22 C17         93.4800    45.2310    10.0370 c          1 Q25       0.578600
     23 O1          94.0270    44.8300    11.0570 o          1 Q25      -0.530000
     24 C18         93.8200    47.9820    13.0140 cc         1 Q25      -0.239000
     25 H4          99.0070    47.1760     7.4170 hc         1 Q25       0.034700
     26 H5          97.6750    48.0640     6.6740 hc         1 Q25       0.034700
     27 H6          96.0270    46.5300     7.7850 hc         1 Q25       0.041200
     28 H7          97.3490    45.6100     8.4900 hc         1 Q25       0.041200
     29 H8          96.4260    47.0440    10.1810 hc         1 Q25       0.040200
     30 H9          98.0530    47.6050     9.8310 hc         1 Q25       0.040200
     31 H10         97.2370    49.5320     8.5750 hc         1 Q25       0.050700
     32 H11         95.5990    48.9010     8.5190 hc         1 Q25       0.050700
     33 H15         91.2780    47.5000    11.2330 h1         1 Q25       0.072700
     34 H14         92.0210    46.1640    12.1220 h1         1 Q25       0.072700
     35 H16         91.1140    47.3720     9.0140 h5         1 Q25       0.048800
     36 H17         93.0200    45.1440     5.4160 ha         1 Q25       0.138000
     37 H2          98.6590    46.4560     5.0530 hc         1 Q25       0.031033
     38 H3          98.3270    45.1030     6.1560 hc         1 Q25       0.031033
     39 H1          96.9810    46.0000     5.4170 hc         1 Q25       0.031033
     40 H12         97.0580    49.8870    11.0360 hc         1 Q25       0.057200
     41 H13         95.8170    50.7660    10.1590 hc         1 Q25       0.057200
     42 H18         94.8580    43.4920     5.1370 ha         1 Q25       0.132000
     43 H19         95.4270    43.3970     9.4030 ha         1 Q25       0.150000
     44 H20         93.4690    47.5390    13.9360 h4         1 Q25       0.166000
@<TRIPOS>BOND
     1     1     6 1   
     2     1    24 1   
     3     2     3 1   
     4     2    12 1   
     5     2    25 1   
     6     2    26 1   
     7     3     4 1   
     8     3    27 1   
     9     3    28 1   
    10     4     5 1   
    11     4    29 1   
    12     4    30 1   
    13     5    13 1   
    14     5    31 1   
    15     5    32 1   
    16     6    13 1   
    17     6    14 2   
    18     7    15 1   
    19     7    16 1   
    20     7    33 1   
    21     7    34 1   
    22     8    16 1   
    23     8    17 2   
    24     8    35 1   
    25     9    10 ar  
    26     9    11 ar  
    27     9    17 1   
    28    10    18 ar  
    29    10    36 1   
    30    11    21 ar  
    31    11    22 1   
    32    12    37 1   
    33    12    38 1   
    34    12    39 1   
    35    13    40 1   
    36    13    41 1   
    37    14    15 1   
    38    15    24 2   
    39    16    22 1   
    40    18    19 ar  
    41    18    42 1   
    42    19    20 1   
    43    19    21 ar  
    44    21    43 1   
    45    22    23 2   
    46    24    44 1   
@<TRIPOS>SUBSTRUCTURE
     1 Q25         1 TEMP              0 ****  ****    0 ROOT
