@<TRIPOS>MOLECULE
Q25
   44    46     1     0     0
SMALL
abcg2


@<TRIPOS>ATOM
      1 S1          95.2540    48.8730    12.9050 ss         1 Q25      -0.022400
      2 C2          98.0410    47.0690     6.9930 c3         1 Q25      -0.074400
      3 C3          97.0900    46.5720     8.0740 c3         1 Q25      -0.076400
      4 C4          96.9840    47.4660     9.3050 c3         1 Q25      -0.072400
      5 C5          96.3490    48.8260     9.0310 c3         1 Q25      -0.067400
      6 C7          95.0820    48.9440    11.1870 cc         1 Q25       0.446700
      7 C9          92.1520    46.8830    11.3790 c3         1 Q25       0.077700
      8 C10         91.9160    46.6890     8.9670 cc         1 Q25       0.524800
      9 C11         93.2130    45.3600     7.6730 ca         1 Q25       0.188400
     10 C12         93.6440    44.9690     6.3970 ca         1 Q25      -0.099000
     11 C16         93.8160    44.7810     8.7960 ca         1 Q25      -0.195600
     12 C1          98.1170    46.1040     5.8170 c3         1 Q25      -0.090100
     13 C6          96.0750    49.6310    10.3040 c3         1 Q25      -0.107700
     14 N1          94.0410    48.3160    10.7480 nd         1 Q25      -0.654000
     15 C8          93.3400    47.7200    11.7540 cd         1 Q25       0.251300
     16 N2          92.4340    46.1960    10.1260 n          1 Q25      -0.322300
     17 N3          92.2310    46.3130     7.7840 nd         1 Q25      -0.625100
     18 C13         94.6560    44.0490     6.2550 ca         1 Q25      -0.070000
     19 C14         95.2530    43.4950     7.3900 ca         1 Q25       0.089000
     20 CL1         96.5590    42.3770     7.1910 cl         1 Q25      -0.197000
     21 C15         94.8400    43.8420     8.6540 ca         1 Q25      -0.034000
     22 C17         93.4090    45.2140    10.1290 c          1 Q25       0.578600
     23 O1          93.8750    44.7930    11.1700 o          1 Q25      -0.530000
     24 C18         93.8360    47.9140    13.0020 cc         1 Q25      -0.239000
     25 H4          99.0380    47.2090     7.4230 hc         1 Q25       0.034700
     26 H5          97.7260    48.0530     6.6330 hc         1 Q25       0.034700
     27 H6          96.0920    46.4390     7.6410 hc         1 Q25       0.041200
     28 H7          97.4070    45.5720     8.3870 hc         1 Q25       0.041200
     29 H8          96.3910    46.9390    10.0560 hc         1 Q25       0.040200
     30 H9          97.9780    47.6090     9.7450 hc         1 Q25       0.040200
     31 H10         96.9950    49.4260     8.3860 hc         1 Q25       0.050700
     32 H11         95.4090    48.6880     8.4920 hc         1 Q25       0.050700
     33 H15         91.2690    47.5030    11.2230 h1         1 Q25       0.072700
     34 H14         91.9130    46.1640    12.1600 h1         1 Q25       0.072700
     35 H16         91.1660    47.4620     9.0940 h5         1 Q25       0.048800
     36 H17         93.1790    45.4110     5.5260 ha         1 Q25       0.138000
     37 H2          98.8060    46.4550     5.0480 hc         1 Q25       0.031033
     38 H3          98.4500    45.1150     6.1380 hc         1 Q25       0.031033
     39 H1          97.1370    45.9790     5.3510 hc         1 Q25       0.031033
     40 H12         97.0030    49.8030    10.8520 hc         1 Q25       0.057200
     41 H13         95.6880    50.6190    10.0390 hc         1 Q25       0.057200
     42 H18         94.9950    43.7630     5.2690 ha         1 Q25       0.132000
     43 H19         95.3110    43.4170     9.5300 ha         1 Q25       0.150000
     44 H20         93.4670    47.5310    13.9400 h4         1 Q25       0.166000
@<TRIPOS>BOND
     1     1     6 1   
     2     1    24 1   
     3     2     3 1   
     4     2    12 1   
     5     2    25 1   
     6     2    26 1   
     7     3     4 1   
     8     3    27 1   
     9     3    28 1   
    10     4     5 1   
    11     4    29 1   
    12     4    30 1   
    13     5    13 1   
    14     5    31 1   
    15     5    32 1   
    16     6    13 1   
    17     6    14 2   
    18     7    15 1   
    19     7    16 1   
    20     7    33 1   
    21     7    34 1   
    22     8    16 1   
    23     8    17 2   
    24     8    35 1   
    25     9    10 ar  
    26     9    11 ar  
    27     9    17 1   
    28    10    18 ar  
    29    10    36 1   
    30    11    21 ar  
    31    11    22 1   
    32    12    37 1   
    33    12    38 1   
    34    12    39 1   
    35    13    40 1   
    36    13    41 1   
    37    14    15 1   
    38    15    24 2   
    39    16    22 1   
    40    18    19 ar  
    41    18    42 1   
    42    19    20 1   
    43    19    21 ar  
    44    21    43 1   
    45    22    23 2   
    46    24    44 1   
@<TRIPOS>SUBSTRUCTURE
     1 Q25         1 TEMP              0 ****  ****    0 ROOT
