@<TRIPOS>MOLECULE
Q26
   55    58     1     0     0
SMALL
No Charge or Current Charge


@<TRIPOS>ATOM
      1 C1          -6.3910    -1.3200     0.1640 ca         1 Q26       0.440900
      2 N2          -6.5720    -2.4030    -0.5960 nb         1 Q26      -0.345000
      3 C3          -5.5040    -2.8020    -1.2880 ca         1 Q26       0.422900
      4 N4          -4.2850    -2.2490    -1.3140 nb         1 Q26      -0.294000
      5 C5          -4.0950    -1.1540    -0.5490 ca         1 Q26       0.103000
      6 C6          -5.1560    -0.6390     0.2330 ca         1 Q26      -0.222000
      7 C7          -2.8450    -0.5120    -0.5170 ca         1 Q26      -0.114000
      8 C8          -2.6190     0.6400     0.2730 cp         1 Q26       0.018000
      9 C9          -3.6920     1.1290     1.0540 ca         1 Q26      -0.122000
     10 C10         -4.9480     0.5030     1.0370 ca         1 Q26      -0.061000
     11 N11         -7.5000    -0.9380     0.8480 nv         1 Q26      -1.079900
     12 N12         -5.6790    -3.8950    -2.0620 nv         1 Q26      -1.061900
     13 C13         -1.2710     1.2930     0.2980 cp         1 Q26      -0.080000
     14 C14         -0.1120     0.4990     0.4740 ca         1 Q26      -0.047000
     15 C15          1.1930     1.0510     0.5080 cp         1 Q26      -0.085000
     16 C16          1.3190     2.4520     0.3550 ca         1 Q26      -0.054000
     17 C17          0.1900     3.2670     0.1720 ca         1 Q26      -0.208000
     18 C18         -1.0990     2.6950     0.1410 ca         1 Q26       0.171100
     19 O19         -2.2330     3.4570    -0.0700 os         1 Q26      -0.340100
     20 C20         -2.1840     4.8820    -0.2410 c3         1 Q26       0.163600
     21 C21         -3.6280     5.3720    -0.4360 c3         1 Q26      -0.094100
     22 C22          2.3960     0.1810     0.7020 cp         1 Q26      -0.006000
     23 C23          2.3520    -0.9500     1.5530 ca         1 Q26      -0.100000
     24 C24          3.4840    -1.7600     1.7360 ca         1 Q26      -0.097000
     25 C25          4.6820    -1.4580     1.0690 ca         1 Q26      -0.080000
     26 C26          4.7560    -0.3430     0.2090 ca         1 Q26       0.231000
     27 C27          3.6180     0.4650     0.0410 ca         1 Q26      -0.138000
     28 N28          5.9180     0.0060    -0.4840 nu         1 Q26      -0.870100
     29 S29          7.2200    -0.9270    -0.9250 s6         1 Q26       1.187100
     30 O30          7.9930    -0.0880    -1.8410 o          1 Q26      -0.526000
     31 O31          7.8200    -1.4270     0.3140 o          1 Q26      -0.526000
     32 C32          6.5220    -2.2860    -1.8410 c3         1 Q26      -0.383100
     33 H7          -2.0350    -0.9080    -1.1250 ha         1 Q26       0.132000
     34 H9          -3.5430     2.0000     1.6870 ha         1 Q26       0.120000
     35 H10         -5.7450     0.9110     1.6550 ha         1 Q26       0.099000
     36 HN11        -8.3860    -1.3580     0.5760 hn         1 Q26       0.497500
     37 HN1A        -7.5450     0.0090     1.2120 hn         1 Q26       0.497500
     38 HN12        -6.6320    -4.1960    -2.2520 hn         1 Q26       0.491000
     39 HN1B        -4.9850    -4.0950    -2.7780 hn         1 Q26       0.491000
     40 H14         -0.2320    -0.5750     0.5840 ha         1 Q26       0.125000
     41 H16          2.3030     2.9150     0.3880 ha         1 Q26       0.113000
     42 H17          0.3380     4.3360     0.0540 ha         1 Q26       0.119000
     43 H20         -1.7510     5.3660     0.6440 h1         1 Q26       0.034700
     44 H20A        -1.5850     5.1490    -1.1210 h1         1 Q26       0.034700
     45 H21         -4.2410     5.1230     0.4380 hc         1 Q26       0.048700
     46 H21A        -3.6440     6.4600    -0.5700 hc         1 Q26       0.048700
     47 H21B        -4.0760     4.9090    -1.3230 hc         1 Q26       0.048700
     48 H23          1.4390    -1.1930     2.0900 ha         1 Q26       0.122000
     49 H24          3.4340    -2.6200     2.4000 ha         1 Q26       0.123000
     50 H25          5.5450    -2.0930     1.2350 ha         1 Q26       0.146000
     51 H27          3.6740     1.3190    -0.6270 ha         1 Q26       0.110000
     52 HN28         5.8620     0.7490    -1.1680 hn         1 Q26       0.485000
     53 H32          5.9730    -1.8650    -2.6890 h1         1 Q26       0.103367
     54 H32A         7.3530    -2.9140    -2.1780 h1         1 Q26       0.103367
     55 H32B         5.8560    -2.8370    -1.1700 h1         1 Q26       0.103367
@<TRIPOS>BOND
     1     1     2 ar  
     2     1     6 ar  
     3     1    11 1   
     4     2     3 ar  
     5     3     4 ar  
     6     3    12 1   
     7     4     5 ar  
     8     5     6 ar  
     9     5     7 ar  
    10     6    10 ar  
    11     7     8 ar  
    12     7    33 1   
    13     8     9 ar  
    14     8    13 1   
    15     9    10 ar  
    16     9    34 1   
    17    10    35 1   
    18    11    36 1   
    19    11    37 1   
    20    12    38 1   
    21    12    39 1   
    22    13    14 ar  
    23    13    18 ar  
    24    14    15 ar  
    25    14    40 1   
    26    15    16 ar  
    27    15    22 1   
    28    16    17 ar  
    29    16    41 1   
    30    17    18 ar  
    31    17    42 1   
    32    18    19 1   
    33    19    20 1   
    34    20    21 1   
    35    20    43 1   
    36    20    44 1   
    37    21    45 1   
    38    21    46 1   
    39    21    47 1   
    40    22    23 ar  
    41    22    27 ar  
    42    23    24 ar  
    43    23    48 1   
    44    24    25 ar  
    45    24    49 1   
    46    25    26 ar  
    47    25    50 1   
    48    26    27 ar  
    49    26    28 1   
    50    27    51 1   
    51    28    29 1   
    52    28    52 1   
    53    29    30 2   
    54    29    31 2   
    55    29    32 1   
    56    32    53 1   
    57    32    54 1   
    58    32    55 1   
@<TRIPOS>SUBSTRUCTURE
     1 Q26         1 TEMP              0 ****  ****    0 ROOT
