@<TRIPOS>MOLECULE
Q26
   55    58     1     0     0
SMALL
abcg2


@<TRIPOS>ATOM
      1 C1          -6.2280    -1.3810     0.1770 ca         1 Q26       0.440900
      2 N2          -6.3450    -2.4550    -0.5740 nb         1 Q26      -0.345000
      3 C3          -5.2620    -2.8590    -1.2690 ca         1 Q26       0.422900
      4 N4          -4.0760    -2.2870    -1.2920 nb         1 Q26      -0.294000
      5 C5          -3.9330    -1.1860    -0.5200 ca         1 Q26       0.103000
      6 C6          -4.9820    -0.6630     0.2620 ca         1 Q26      -0.222000
      7 C7          -2.6850    -0.5270    -0.4910 ca         1 Q26      -0.114000
      8 C8          -2.4810     0.5960     0.2790 cp         1 Q26       0.018000
      9 C9          -3.5430     1.1030     1.0580 ca         1 Q26      -0.122000
     10 C10         -4.7640     0.4790     1.0490 ca         1 Q26      -0.061000
     11 N11         -7.3020    -0.9870     0.8680 nv         1 Q26      -1.079900
     12 N12         -5.4300    -3.9910    -1.9880 nv         1 Q26      -1.061900
     13 C13         -1.1430     1.2250     0.3210 cp         1 Q26      -0.080000
     14 C14         -0.0290     0.4510     0.6150 ca         1 Q26      -0.047000
     15 C15          1.2600     0.9820     0.6600 cp         1 Q26      -0.085000
     16 C16          1.4070     2.3400     0.3940 ca         1 Q26      -0.054000
     17 C17          0.3150     3.1380     0.0880 ca         1 Q26      -0.208000
     18 C18         -0.9650     2.5910     0.0450 ca         1 Q26       0.171100
     19 O19         -2.0680     3.2860    -0.2700 os         1 Q26      -0.340100
     20 C20         -1.9620     4.6740    -0.5600 c3         1 Q26       0.163600
     21 C21         -3.3430     5.1840    -0.8940 c3         1 Q26      -0.094100
     22 C22          2.4210     0.1310     0.9820 cp         1 Q26      -0.006000
     23 C23          2.3130    -0.9250     1.8890 ca         1 Q26      -0.100000
     24 C24          3.4110    -1.7200     2.1810 ca         1 Q26      -0.097000
     25 C25          4.6410    -1.4780     1.5900 ca         1 Q26      -0.080000
     26 C26          4.7570    -0.4360     0.6770 ca         1 Q26       0.231000
     27 C27          3.6550     0.3540     0.3720 ca         1 Q26      -0.138000
     28 N28          6.0090    -0.1660     0.0660 nu         1 Q26      -0.870100
     29 S29          6.5740    -1.1830    -1.1260 s6         1 Q26       1.187100
     30 O30          7.8450    -0.6220    -1.5500 o          1 Q26      -0.526000
     31 O31          6.5250    -2.5370    -0.6030 o          1 Q26      -0.526000
     32 C32          5.4140    -1.0630    -2.4670 c3         1 Q26      -0.383100
     33 H7          -1.8850    -0.9290    -1.1020 ha         1 Q26       0.132000
     34 H9          -3.3930     1.9730     1.6820 ha         1 Q26       0.120000
     35 H10         -5.5520     0.8870     1.6700 ha         1 Q26       0.099000
     36 HN11        -8.1740    -1.4720     0.7380 hn         1 Q26       0.497500
     37 HN1A        -7.3280    -0.1290     1.3870 hn         1 Q26       0.497500
     38 HN12        -6.3640    -4.3250    -2.1510 hn         1 Q26       0.491000
     39 HN1B        -4.7360    -4.2270    -2.6760 hn         1 Q26       0.491000
     40 H14         -0.1790    -0.6040     0.8110 ha         1 Q26       0.125000
     41 H16          2.3860     2.8010     0.4400 ha         1 Q26       0.113000
     42 H17          0.4800     4.1870    -0.1130 ha         1 Q26       0.119000
     43 H20         -1.5520     5.2100     0.3030 h1         1 Q26       0.034700
     44 H20A        -1.2810     4.8320    -1.4030 h1         1 Q26       0.034700
     45 H21         -4.0270     5.0590    -0.0550 hc         1 Q26       0.048700
     46 H21A        -3.2880     6.2470    -1.1290 hc         1 Q26       0.048700
     47 H21B        -3.7560     4.6690    -1.7610 hc         1 Q26       0.048700
     48 H23          1.3720    -1.1160     2.3890 ha         1 Q26       0.122000
     49 H24          3.3130    -2.5250     2.8970 ha         1 Q26       0.123000
     50 H25          5.5020    -2.0790     1.8470 ha         1 Q26       0.146000
     51 H27          3.7620     1.1380    -0.3680 ha         1 Q26       0.110000
     52 HN28         6.1510     0.8080    -0.1850 hn         1 Q26       0.485000
     53 H32          5.3850    -0.0360    -2.8240 h1         1 Q26       0.103367
     54 H32A         5.7550    -1.7240    -3.2620 h1         1 Q26       0.103367
     55 H32B         4.4290    -1.3750    -2.1260 h1         1 Q26       0.103367
@<TRIPOS>BOND
     1     1     2 ar  
     2     1     6 ar  
     3     1    11 1   
     4     2     3 ar  
     5     3     4 ar  
     6     3    12 1   
     7     4     5 ar  
     8     5     6 ar  
     9     5     7 ar  
    10     6    10 ar  
    11     7     8 ar  
    12     7    33 1   
    13     8     9 ar  
    14     8    13 1   
    15     9    10 ar  
    16     9    34 1   
    17    10    35 1   
    18    11    36 1   
    19    11    37 1   
    20    12    38 1   
    21    12    39 1   
    22    13    14 ar  
    23    13    18 ar  
    24    14    15 ar  
    25    14    40 1   
    26    15    16 ar  
    27    15    22 1   
    28    16    17 ar  
    29    16    41 1   
    30    17    18 ar  
    31    17    42 1   
    32    18    19 1   
    33    19    20 1   
    34    20    21 1   
    35    20    43 1   
    36    20    44 1   
    37    21    45 1   
    38    21    46 1   
    39    21    47 1   
    40    22    23 ar  
    41    22    27 ar  
    42    23    24 ar  
    43    23    48 1   
    44    24    25 ar  
    45    24    49 1   
    46    25    26 ar  
    47    25    50 1   
    48    26    27 ar  
    49    26    28 1   
    50    27    51 1   
    51    28    29 1   
    52    28    52 1   
    53    29    30 2   
    54    29    31 2   
    55    29    32 1   
    56    32    53 1   
    57    32    54 1   
    58    32    55 1   
@<TRIPOS>SUBSTRUCTURE
     1 Q26         1 TEMP              0 ****  ****    0 ROOT
