@<TRIPOS>MOLECULE
Q27
   46    49     1     0     0
SMALL
No Charge or Current Charge


@<TRIPOS>ATOM
      1 C1          -4.0240     0.2530    -0.9090 ca         1 Q27       0.440900
      2 N2          -4.8740     0.2280     0.1200 nb         1 Q27      -0.346000
      3 C3          -4.3140     0.1140     1.3250 ca         1 Q27       0.413900
      4 N4          -3.0110     0.0230     1.6210 nb         1 Q27      -0.288000
      5 C5          -2.1470     0.0480     0.5860 ca         1 Q27       0.097000
      6 C6          -2.6240     0.1670    -0.7400 ca         1 Q27      -0.217000
      7 C7          -0.7630    -0.0410     0.8060 ca         1 Q27      -0.104000
      8 C8           0.1610    -0.0130    -0.2610 cp         1 Q27       0.025000
      9 C9          -0.3270     0.1040    -1.5880 ca         1 Q27      -0.089300
     10 C10         -1.7130     0.1950    -1.8200 ca         1 Q27      -0.065000
     11 N11         -4.6320     0.3610    -2.1190 nv         1 Q27      -1.083900
     12 N12         -5.1680     0.0910     2.3710 nv         1 Q27      -1.053900
     13 C13          0.6290     0.1280    -2.7770 c3         1 Q27      -0.039800
     14 C14          1.6240    -0.1040     0.0260 cp         1 Q27      -0.090000
     15 C15          2.2190    -1.3700     0.2620 ca         1 Q27       0.162100
     16 C16          3.5990    -1.4830     0.5260 ca         1 Q27      -0.184000
     17 C17          4.4010    -0.3330     0.5590 ca         1 Q27      -0.058000
     18 C18          3.8340     0.9330     0.3330 ca         1 Q27      -0.073000
     19 C19          2.4490     1.0560     0.0680 ca         1 Q27       0.015000
     20 C20          1.9090     2.3450    -0.1480 ca         1 Q27      -0.105000
     21 C21          2.7320     3.4830    -0.1060 ca         1 Q27      -0.099000
     22 C22          4.1040     3.3500     0.1530 ca         1 Q27      -0.119000
     23 C23          4.6540     2.0770     0.3730 ca         1 Q27      -0.088000
     24 O24          1.3840    -2.4700     0.2110 os         1 Q27      -0.341100
     25 C25          1.8610    -3.8080     0.4200 c3         1 Q27       0.165600
     26 C26          0.6560    -4.7530     0.2860 c3         1 Q27      -0.095100
     27 H7          -0.3910    -0.1320     1.8230 ha         1 Q27       0.136000
     28 H10         -2.0720     0.2910    -2.8410 ha         1 Q27       0.097000
     29 HN11        -5.6360     0.2040    -2.1530 hn         1 Q27       0.498500
     30 HN1A        -4.1090     0.1030    -2.9500 hn         1 Q27       0.498500
     31 HN12        -6.1280     0.3850     2.2110 hn         1 Q27       0.484500
     32 HN1B        -4.7930     0.2370     3.3050 hn         1 Q27       0.484500
     33 H13          1.3240    -0.7190    -2.7410 hc         1 Q27       0.041033
     34 H13A         0.0950     0.0710    -3.7340 hc         1 Q27       0.041033
     35 H13B         1.2230     1.0490    -2.7850 hc         1 Q27       0.041033
     36 H16          4.0640    -2.4480     0.7050 ha         1 Q27       0.118000
     37 H17          5.4660    -0.4280     0.7630 ha         1 Q27       0.113000
     38 H20          0.8490     2.4770    -0.3490 ha         1 Q27       0.124000
     39 H21          2.3040     4.4690    -0.2750 ha         1 Q27       0.112000
     40 H22          4.7410     4.2310     0.1850 ha         1 Q27       0.113000
     41 H23          5.7190     1.9830     0.5760 ha         1 Q27       0.110000
     42 H25          2.6180    -4.0730    -0.3290 h1         1 Q27       0.031200
     43 H25A         2.2990    -3.9150     1.4200 h1         1 Q27       0.031200
     44 H26          0.9700    -5.7920     0.4370 hc         1 Q27       0.048367
     45 H26A        -0.1090    -4.5110     1.0330 hc         1 Q27       0.048367
     46 H26B         0.2100    -4.6700    -0.7130 hc         1 Q27       0.048367
@<TRIPOS>BOND
     1     1     2 ar  
     2     1     6 ar  
     3     1    11 1   
     4     2     3 ar  
     5     3     4 ar  
     6     3    12 1   
     7     4     5 ar  
     8     5     6 ar  
     9     5     7 ar  
    10     6    10 ar  
    11     7     8 ar  
    12     7    27 1   
    13     8     9 ar  
    14     8    14 1   
    15     9    10 ar  
    16     9    13 1   
    17    10    28 1   
    18    11    29 1   
    19    11    30 1   
    20    12    31 1   
    21    12    32 1   
    22    13    33 1   
    23    13    34 1   
    24    13    35 1   
    25    14    15 ar  
    26    14    19 ar  
    27    15    16 ar  
    28    15    24 1   
    29    16    17 ar  
    30    16    36 1   
    31    17    18 ar  
    32    17    37 1   
    33    18    19 ar  
    34    18    23 ar  
    35    19    20 ar  
    36    20    21 ar  
    37    20    38 1   
    38    21    22 ar  
    39    21    39 1   
    40    22    23 ar  
    41    22    40 1   
    42    23    41 1   
    43    24    25 1   
    44    25    26 1   
    45    25    42 1   
    46    25    43 1   
    47    26    44 1   
    48    26    45 1   
    49    26    46 1   
@<TRIPOS>SUBSTRUCTURE
     1 Q27         1 TEMP              0 ****  ****    0 ROOT
