@<TRIPOS>MOLECULE
Q27
   46    49     1     0     0
SMALL
abcg2


@<TRIPOS>ATOM
      1 C1          -4.0350     0.2020    -0.8670 ca         1 Q27       0.440900
      2 N2          -4.8210     0.4140     0.1670 nb         1 Q27      -0.346000
      3 C3          -4.2490     0.5320     1.3830 ca         1 Q27       0.413900
      4 N4          -2.9660     0.4630     1.6630 nb         1 Q27      -0.288000
      5 C5          -2.1400     0.2400     0.6130 ca         1 Q27       0.097000
      6 C6          -2.6070     0.0940    -0.7060 ca         1 Q27      -0.217000
      7 C7          -0.7500     0.1520     0.8320 ca         1 Q27      -0.104000
      8 C8           0.1270    -0.0730    -0.2010 cp         1 Q27       0.025000
      9 C9          -0.3440    -0.2200    -1.5290 ca         1 Q27      -0.089300
     10 C10         -1.6980    -0.1310    -1.7520 ca         1 Q27      -0.065000
     11 N11         -4.6080     0.0970    -2.0690 nv         1 Q27      -1.083900
     12 N12         -5.1150     0.7040     2.4120 nv         1 Q27      -1.053900
     13 C13          0.6090    -0.4650    -2.6610 c3         1 Q27      -0.039800
     14 C14          1.5850    -0.1350     0.0760 cp         1 Q27      -0.090000
     15 C15          2.2000    -1.3640     0.2120 ca         1 Q27       0.162100
     16 C16          3.5880    -1.4450     0.4650 ca         1 Q27      -0.184000
     17 C17          4.3340    -0.3040     0.5710 ca         1 Q27      -0.058000
     18 C18          3.7460     0.9700     0.4320 ca         1 Q27      -0.073000
     19 C19          2.3500     1.0530     0.1800 ca         1 Q27       0.015000
     20 C20          1.7750     2.3410     0.0240 ca         1 Q27      -0.105000
     21 C21          2.5420     3.4690     0.1220 ca         1 Q27      -0.099000
     22 C22          3.9260     3.3820     0.3850 ca         1 Q27      -0.119000
     23 C23          4.5110     2.1560     0.5330 ca         1 Q27      -0.088000
     24 O24          1.4100    -2.4440     0.0900 os         1 Q27      -0.341100
     25 C25          1.9840    -3.7440     0.1020 c3         1 Q27       0.165600
     26 C26          0.8730    -4.7420    -0.1240 c3         1 Q27      -0.095100
     27 H7          -0.3810     0.2700     1.8440 ha         1 Q27       0.136000
     28 H10         -2.0530    -0.2380    -2.7710 ha         1 Q27       0.097000
     29 HN11        -5.6090     0.1550    -2.1460 hn         1 Q27       0.498500
     30 HN1A        -4.0900    -0.0930    -2.9060 hn         1 Q27       0.498500
     31 HN12        -6.0480     1.0090     2.1920 hn         1 Q27       0.484500
     32 HN1B        -4.7400     1.0260     3.2880 hn         1 Q27       0.484500
     33 H13          1.0810    -1.4460    -2.5790 hc         1 Q27       0.041033
     34 H13A         0.0940    -0.4290    -3.6200 hc         1 Q27       0.041033
     35 H13B         1.4110     0.2740    -2.6840 hc         1 Q27       0.041033
     36 H16          4.0760    -2.4030     0.5830 ha         1 Q27       0.118000
     37 H17          5.3970    -0.3780     0.7620 ha         1 Q27       0.113000
     38 H20          0.7150     2.4300    -0.1740 ha         1 Q27       0.124000
     39 H21          2.0830     4.4410    -0.0020 ha         1 Q27       0.112000
     40 H22          4.5180     4.2840     0.4660 ha         1 Q27       0.113000
     41 H23          5.5740     2.0740     0.7280 ha         1 Q27       0.110000
     42 H25          2.7400    -3.8320    -0.6850 h1         1 Q27       0.031200
     43 H25A         2.4760    -3.9380     1.0600 h1         1 Q27       0.031200
     44 H26          1.2880    -5.7490    -0.1310 hc         1 Q27       0.048367
     45 H26A         0.1270    -4.6920     0.6690 hc         1 Q27       0.048367
     46 H26B         0.3770    -4.5750    -1.0800 hc         1 Q27       0.048367
@<TRIPOS>BOND
     1     1     2 ar  
     2     1     6 ar  
     3     1    11 1   
     4     2     3 ar  
     5     3     4 ar  
     6     3    12 1   
     7     4     5 ar  
     8     5     6 ar  
     9     5     7 ar  
    10     6    10 ar  
    11     7     8 ar  
    12     7    27 1   
    13     8     9 ar  
    14     8    14 1   
    15     9    10 ar  
    16     9    13 1   
    17    10    28 1   
    18    11    29 1   
    19    11    30 1   
    20    12    31 1   
    21    12    32 1   
    22    13    33 1   
    23    13    34 1   
    24    13    35 1   
    25    14    15 ar  
    26    14    19 ar  
    27    15    16 ar  
    28    15    24 1   
    29    16    17 ar  
    30    16    36 1   
    31    17    18 ar  
    32    17    37 1   
    33    18    19 ar  
    34    18    23 ar  
    35    19    20 ar  
    36    20    21 ar  
    37    20    38 1   
    38    21    22 ar  
    39    21    39 1   
    40    22    23 ar  
    41    22    40 1   
    42    23    41 1   
    43    24    25 1   
    44    25    26 1   
    45    25    42 1   
    46    25    43 1   
    47    26    44 1   
    48    26    45 1   
    49    26    46 1   
@<TRIPOS>SUBSTRUCTURE
     1 Q27         1 TEMP              0 ****  ****    0 ROOT
