@<TRIPOS>MOLECULE
Q28
   59    63     1     0     0
SMALL
No Charge or Current Charge


@<TRIPOS>ATOM
      1 CBG         -7.7220    -1.8400     0.1760 ca         1 Q28      -0.145000
      2 CBF         -9.1070    -1.7320     0.3730 ca         1 Q28      -0.070000
      3 CBE         -9.6980    -0.4720     0.5350 ca         1 Q28      -0.130000
      4 CBD         -8.9020     0.6860     0.5010 ca         1 Q28      -0.053000
      5 CBC         -9.5010     1.9480     0.6650 ca         1 Q28      -0.061000
      6 CBB         -8.6820     3.0860     0.6270 ca         1 Q28      -0.163000
      7 CBA         -7.3040     2.9260     0.4280 ca         1 Q28       0.353900
      8 NAZ         -6.7200     1.7150     0.2690 nb         1 Q28      -0.692000
      9 CAY         -7.4970     0.5980     0.3030 ca         1 Q28       0.230000
     10 CAX         -6.9080    -0.6840     0.1400 ca         1 Q28       0.007000
     11 NAW         -5.4960    -0.7350    -0.0570 ns         1 Q28      -0.133000
     12 CAU         -4.5990    -1.7760    -0.2460 c          1 Q28       0.627700
     13 OAV         -4.9320    -2.9560    -0.2760 o          1 Q28      -0.589100
     14 CAR         -3.1450    -1.3710    -0.4190 ca         1 Q28      -0.183600
     15 CAS         -2.1660    -2.3690    -0.6180 ca         1 Q28      -0.038500
     16 CAT         -0.8130    -2.0260    -0.7810 ca         1 Q28      -0.165500
     17 CAQ         -2.7270    -0.0180    -0.3870 ca         1 Q28      -0.038500
     18 CAP         -1.3710     0.3180    -0.5520 ca         1 Q28      -0.165500
     19 CAO         -0.4000    -0.6840    -0.7540 ca         1 Q28       0.006000
     20 NAN          0.9870    -0.4180    -0.9230 ns         1 Q28      -0.148000
     21 CAL          1.7070     0.7660    -1.0270 c          1 Q28       0.607100
     22 OAM          1.2090     1.8850    -1.0200 o          1 Q28      -0.577100
     23 CAK          3.2200     0.5730    -1.1970 c3         1 Q28      -0.151400
     24 CAJ          4.0020     0.9680     0.0870 c3         1 Q28      -0.107700
     25 CAI          5.4900     0.7700    -0.0310 cc         1 Q28       0.502900
     26 NAH          6.0650    -0.3540     0.3890 nd         1 Q28      -0.643100
     27 CAG          7.4630    -0.4120     0.2040 ca         1 Q28       0.186400
     28 CAB          8.1530    -1.5780     0.6290 ca         1 Q28      -0.066300
     29 CAA          7.4050    -2.7450     1.2720 c3         1 Q28      -0.033800
     30 CAC          9.5490    -1.6750     0.4610 ca         1 Q28      -0.078000
     31 CAD         10.2690    -0.6250    -0.1260 ca         1 Q28      -0.127000
     32 CAE          9.5990     0.5300    -0.5490 ca         1 Q28      -0.044000
     33 CAF          8.2020     0.6370    -0.3860 ca         1 Q28      -0.197600
     34 CBI          7.4820     1.8550    -0.8330 c          1 Q28       0.578600
     35 OBJ          8.0210     2.8190    -1.3550 o          1 Q28      -0.534000
     36 NBH          6.1510     1.8160    -0.6120 ns         1 Q28      -0.431400
     37 HBG         -7.3040    -2.8340     0.0550 ha         1 Q28       0.151000
     38 HBF         -9.7250    -2.6280     0.3990 ha         1 Q28       0.117000
     39 HBE        -10.7720    -0.3980     0.6870 ha         1 Q28       0.118000
     40 HBC        -10.5740     2.0450     0.8180 ha         1 Q28       0.121000
     41 HBB         -9.1040     4.0800     0.7490 ha         1 Q28       0.125000
     42 HBA         -6.6440     3.7920     0.3930 h4         1 Q28       0.019100
     43 HAW         -5.0720     0.1820    -0.0560 hn         1 Q28       0.186000
     44 HAS         -2.4480    -3.4200    -0.6470 ha         1 Q28       0.128500
     45 HAQ         -3.4360     0.7930    -0.2350 ha         1 Q28       0.128500
     46 HAT         -0.0810    -2.8170    -0.9320 ha         1 Q28       0.132500
     47 HAP         -1.0990     1.3670    -0.5130 ha         1 Q28       0.132500
     48 HAN          1.5570    -1.2520    -0.9710 hn         1 Q28       0.154000
     49 HAK1         3.4400    -0.4770    -1.4280 hc         1 Q28       0.080200
     50 HAK2         3.5580     1.2080    -2.0240 hc         1 Q28       0.080200
     51 HAJ1         3.7850     2.0130     0.3430 hc         1 Q28       0.078200
     52 HAJ2         3.6290     0.3720     0.9300 hc         1 Q28       0.078200
     53 HBH          5.6290     2.6280    -0.9060 hn         1 Q28       0.331500
     54 HAA1         6.6500    -3.1540     0.5900 hc         1 Q28       0.044367
     55 HAA2         8.0800    -3.5660     1.5420 hc         1 Q28       0.044367
     56 HAA3         6.8940    -2.4280     2.1890 hc         1 Q28       0.044367
     57 HAC         10.0790    -2.5670     0.7860 ha         1 Q28       0.116000
     58 HAD         11.3460    -0.7070    -0.2520 ha         1 Q28       0.121000
     59 HAE         10.1660     1.3410    -1.0040 ha         1 Q28       0.137000
@<TRIPOS>BOND
     1     1     2 ar  
     2     1    10 ar  
     3     1    37 1   
     4     2     3 ar  
     5     2    38 1   
     6     3     4 ar  
     7     3    39 1   
     8     4     5 ar  
     9     4     9 ar  
    10     5     6 ar  
    11     5    40 1   
    12     6     7 ar  
    13     6    41 1   
    14     7     8 ar  
    15     7    42 1   
    16     8     9 ar  
    17     9    10 ar  
    18    10    11 1   
    19    11    12 1   
    20    11    43 1   
    21    12    13 2   
    22    12    14 1   
    23    14    15 ar  
    24    14    17 ar  
    25    15    16 ar  
    26    15    44 1   
    27    16    19 ar  
    28    16    46 1   
    29    17    18 ar  
    30    17    45 1   
    31    18    19 ar  
    32    18    47 1   
    33    19    20 1   
    34    20    21 1   
    35    20    48 1   
    36    21    22 2   
    37    21    23 1   
    38    23    24 1   
    39    23    49 1   
    40    23    50 1   
    41    24    25 1   
    42    24    51 1   
    43    24    52 1   
    44    25    26 2   
    45    25    36 1   
    46    26    27 1   
    47    27    28 ar  
    48    27    33 ar  
    49    28    29 1   
    50    28    30 ar  
    51    29    54 1   
    52    29    55 1   
    53    29    56 1   
    54    30    31 ar  
    55    30    57 1   
    56    31    32 ar  
    57    31    58 1   
    58    32    33 ar  
    59    32    59 1   
    60    33    34 1   
    61    34    35 2   
    62    34    36 1   
    63    36    53 1   
@<TRIPOS>SUBSTRUCTURE
     1 Q28         1 TEMP              0 ****  ****    0 ROOT
