@<TRIPOS>MOLECULE
Q28
   59    63     1     0     0
SMALL
abcg2


@<TRIPOS>ATOM
      1 CBG         -7.6510    -1.6890     0.6780 ca         1 Q28      -0.145000
      2 CBF         -9.0490    -1.5070     0.6920 ca         1 Q28      -0.070000
      3 CBE         -9.6300    -0.3460     0.2680 ca         1 Q28      -0.130000
      4 CBD         -8.8110     0.7060    -0.1990 ca         1 Q28      -0.053000
      5 CBC         -9.3230     1.9400    -0.6560 ca         1 Q28      -0.061000
      6 CBB         -8.4620     2.9080    -1.0920 ca         1 Q28      -0.163000
      7 CBA         -7.0790     2.6430    -1.0690 ca         1 Q28       0.353900
      8 NAZ         -6.5730     1.5120    -0.6520 nb         1 Q28      -0.692000
      9 CAY         -7.4080     0.5450    -0.2200 ca         1 Q28       0.230000
     10 CAX         -6.8260    -0.6830     0.2300 ca         1 Q28       0.007000
     11 NAW         -5.4400    -0.7180     0.1740 ns         1 Q28      -0.133000
     12 CAU         -4.5960    -1.7400     0.4670 c          1 Q28       0.627700
     13 OAV         -4.9730    -2.8580     0.7810 o          1 Q28      -0.589100
     14 CAR         -3.1490    -1.4100     0.3680 ca         1 Q28      -0.183600
     15 CAS         -2.2430    -2.4500     0.1610 ca         1 Q28      -0.038500
     16 CAT         -0.8900    -2.2020     0.0790 ca         1 Q28      -0.165500
     17 CAQ         -2.6430    -0.1220     0.5180 ca         1 Q28      -0.038500
     18 CAP         -1.2840     0.1410     0.4530 ca         1 Q28      -0.165500
     19 CAO         -0.3860    -0.9040     0.2260 ca         1 Q28       0.006000
     20 NAN          0.9940    -0.7550     0.1380 ns         1 Q28      -0.148000
     21 CAL          1.7540     0.3710     0.2450 c          1 Q28       0.607100
     22 OAM          1.2980     1.4780     0.4560 o          1 Q28      -0.577100
     23 CAK          3.2310     0.1020     0.0620 c3         1 Q28      -0.151400
     24 CAJ          4.0770     1.3290     0.3380 c3         1 Q28      -0.107700
     25 CAI          5.5400     1.0830     0.1370 cc         1 Q28       0.502900
     26 NAH          5.9910    -0.0720    -0.1880 nd         1 Q28      -0.643100
     27 CAG          7.3480    -0.2220    -0.3540 ca         1 Q28       0.186400
     28 CAB          7.8360    -1.4960    -0.7130 ca         1 Q28      -0.066300
     29 CAA          6.8900    -2.6430    -0.8940 c3         1 Q28      -0.033800
     30 CAC          9.1990    -1.6480    -0.8820 ca         1 Q28      -0.078000
     31 CAD         10.0910    -0.5850    -0.7070 ca         1 Q28      -0.127000
     32 CAE          9.6180     0.6590    -0.3570 ca         1 Q28      -0.044000
     33 CAF          8.2440     0.8440    -0.1810 ca         1 Q28      -0.197600
     34 CBI          7.7170     2.1520     0.1890 c          1 Q28       0.578600
     35 OBJ          8.3810     3.1580     0.3700 o          1 Q28      -0.534000
     36 NBH          6.3480     2.1670     0.3250 ns         1 Q28      -0.431400
     37 HBG         -7.2450    -2.6240     1.0240 ha         1 Q28       0.151000
     38 HBF         -9.6660    -2.3200     1.0520 ha         1 Q28       0.117000
     39 HBE        -10.7050    -0.2190     0.2840 ha         1 Q28       0.118000
     40 HBC        -10.3930     2.1050    -0.6570 ha         1 Q28       0.121000
     41 HBB         -8.8200     3.8630    -1.4510 ha         1 Q28       0.125000
     42 HBA         -6.3790     3.3980    -1.4090 h4         1 Q28       0.019100
     43 HAW         -5.0500     0.1410    -0.1940 hn         1 Q28       0.186000
     44 HAS         -2.6000    -3.4660     0.0510 ha         1 Q28       0.128500
     45 HAQ         -3.2980     0.7160     0.7220 ha         1 Q28       0.128500
     46 HAT         -0.2090    -3.0270    -0.0960 ha         1 Q28       0.132500
     47 HAP         -0.9400     1.1520     0.5890 ha         1 Q28       0.132500
     48 HAN          1.5010    -1.6110    -0.0300 hn         1 Q28       0.154000
     49 HAK1         3.5320    -0.7250     0.7090 hc         1 Q28       0.080200
     50 HAK2         3.3950    -0.2520    -0.9600 hc         1 Q28       0.080200
     51 HAJ1         3.7750     2.1590    -0.3060 hc         1 Q28       0.078200
     52 HAJ2         3.9260     1.6770     1.3640 hc         1 Q28       0.078200
     53 HBH          5.9250     3.0500     0.5840 hn         1 Q28       0.331500
     54 HAA1         6.1110    -2.4090    -1.6190 hc         1 Q28       0.044367
     55 HAA2         7.4190    -3.5310    -1.2360 hc         1 Q28       0.044367
     56 HAA3         6.3850    -2.8910     0.0410 hc         1 Q28       0.044367
     57 HAC          9.5880    -2.6200    -1.1620 ha         1 Q28       0.116000
     58 HAD         11.1510    -0.7450    -0.8480 ha         1 Q28       0.121000
     59 HAE         10.2960     1.4900    -0.2190 ha         1 Q28       0.137000
@<TRIPOS>BOND
     1     1     2 ar  
     2     1    10 ar  
     3     1    37 1   
     4     2     3 ar  
     5     2    38 1   
     6     3     4 ar  
     7     3    39 1   
     8     4     5 ar  
     9     4     9 ar  
    10     5     6 ar  
    11     5    40 1   
    12     6     7 ar  
    13     6    41 1   
    14     7     8 ar  
    15     7    42 1   
    16     8     9 ar  
    17     9    10 ar  
    18    10    11 1   
    19    11    12 1   
    20    11    43 1   
    21    12    13 2   
    22    12    14 1   
    23    14    15 ar  
    24    14    17 ar  
    25    15    16 ar  
    26    15    44 1   
    27    16    19 ar  
    28    16    46 1   
    29    17    18 ar  
    30    17    45 1   
    31    18    19 ar  
    32    18    47 1   
    33    19    20 1   
    34    20    21 1   
    35    20    48 1   
    36    21    22 2   
    37    21    23 1   
    38    23    24 1   
    39    23    49 1   
    40    23    50 1   
    41    24    25 1   
    42    24    51 1   
    43    24    52 1   
    44    25    26 2   
    45    25    36 1   
    46    26    27 1   
    47    27    28 ar  
    48    27    33 ar  
    49    28    29 1   
    50    28    30 ar  
    51    29    54 1   
    52    29    55 1   
    53    29    56 1   
    54    30    31 ar  
    55    30    57 1   
    56    31    32 ar  
    57    31    58 1   
    58    32    33 ar  
    59    32    59 1   
    60    33    34 1   
    61    34    35 2   
    62    34    36 1   
    63    36    53 1   
@<TRIPOS>SUBSTRUCTURE
     1 Q28         1 TEMP              0 ****  ****    0 ROOT
