@<TRIPOS>MOLECULE
Q29
   34    35     1     0     0
SMALL
No Charge or Current Charge


@<TRIPOS>ATOM
      1 C01          7.3480     8.3980    14.9460 c6         1 Q29      -0.079400
      2 C02          7.6610     8.9280    16.3670 c6         1 Q29      -0.069400
      3 C04          5.8500     7.3840    17.3680 c6         1 Q29      -0.070700
      4 C05          5.5180     6.8840    15.9170 c6         1 Q29      -0.183700
      5 C06          6.7630     6.9630    14.9840 c6         1 Q29      -0.053400
      6 C07          4.8170     5.5000    15.8630 c          1 Q29       0.707000
      7 O08          5.4660     4.5000    16.1270 o          1 Q29      -0.736000
      8 C10          6.7930     6.4200    18.1750 c3         1 Q29       0.164600
      9 C13          6.1320     7.0220    20.4970 ca         1 Q29       0.163100
     10 C15          5.5290     7.9260    22.6790 ca         1 Q29       0.150000
     11 C16          4.3060     7.2250    22.6380 ca         1 Q29       0.069000
     12 C17          4.0020     6.4180    21.5290 ca         1 Q29      -0.058000
     13 C18          4.9120     6.3120    20.4600 ca         1 Q29      -0.166000
     14 C03          6.4150     8.8370    17.2860 c6         1 Q29      -0.070400
     15 O09          3.6520     5.4650    15.4930 o          1 Q29      -0.736000
     16 C14          6.4350     7.8180    21.6120 ca         1 Q29      -0.159000
     17 Cl19         5.9500     8.9450    24.0570 cl         1 Q29      -0.220000
     18 Cl20         3.1430     7.3350    23.9620 cl         1 Q29      -0.218000
     19 O21          7.0700     6.9590    19.4860 os         1 Q29      -0.368100
     20 H22          6.6340     9.0720    14.4530 hc         1 Q29       0.020700
     21 H23          8.2600     8.4120    14.3340 hc         1 Q29       0.020700
     22 H24          8.4940     8.3610    16.8020 hc         1 Q29       0.022200
     23 H25          7.9980     9.9710    16.3050 hc         1 Q29       0.022200
     24 H12          4.9050     7.4260    17.9250 hc         1 Q29       0.068700
     25 H11          4.7760     7.5970    15.5270 hc         1 Q29       0.037700
     26 H28          6.4820     6.6590    13.9670 hc         1 Q29       0.042200
     27 H29          7.5350     6.2550    15.3130 hc         1 Q29       0.042200
     28 H32          6.3500     5.4210    18.2570 h1         1 Q29       0.068200
     29 H31          7.7340     6.3050    17.6230 h1         1 Q29       0.068200
     30 H34          3.0610     5.8730    21.4990 ha         1 Q29       0.134000
     31 H35          4.6550     5.6720    19.6200 ha         1 Q29       0.199000
     32 H27          6.6610     9.2170    18.2860 hc         1 Q29       0.029700
     33 H26          5.6350     9.5080    16.8990 hc         1 Q29       0.029700
     34 H33          7.3760     8.3590    21.6460 ha         1 Q29       0.132000
@<TRIPOS>BOND
     1     1     2 1   
     2     1     5 1   
     3     1    20 1   
     4     1    21 1   
     5     2    14 1   
     6     2    22 1   
     7     2    23 1   
     8     3     4 1   
     9     3     8 1   
    10     3    14 1   
    11     3    24 1   
    12     4     5 1   
    13     4     6 1   
    14     4    25 1   
    15     5    26 1   
    16     5    27 1   
    17     6     7 1   
    18     6    15 1   
    19     8    19 1   
    20     8    28 1   
    21     8    29 1   
    22     9    13 ar  
    23     9    16 ar  
    24     9    19 1   
    25    10    11 ar  
    26    10    16 ar  
    27    10    17 1   
    28    11    12 ar  
    29    11    18 1   
    30    12    13 ar  
    31    12    30 1   
    32    13    31 1   
    33    14    32 1   
    34    14    33 1   
    35    16    34 1   
@<TRIPOS>SUBSTRUCTURE
     1 Q29         1 TEMP              0 ****  ****    0 ROOT
