@<TRIPOS>MOLECULE
Q29
   34    35     1     0     0
SMALL
abcg2


@<TRIPOS>ATOM
      1 C01          7.3370     8.1910    14.8040 c6         1 Q29      -0.079400
      2 C02          7.7530     8.9060    16.0910 c6         1 Q29      -0.069400
      3 C04          5.9510     7.6250    17.3730 c6         1 Q29      -0.070700
      4 C05          5.5620     6.9040    16.0650 c6         1 Q29      -0.183700
      5 C06          6.7400     6.8110    15.0930 c6         1 Q29      -0.053400
      6 C07          4.8490     5.5570    16.3490 c          1 Q29       0.707000
      7 O08          5.2290     4.5330    15.7290 o          1 Q29      -0.736000
      8 C10          6.8540     6.7510    18.2430 c3         1 Q29       0.164600
      9 C13          6.0520     7.1570    20.4810 ca         1 Q29       0.163100
     10 C15          5.3640     7.6400    22.7420 ca         1 Q29       0.150000
     11 C16          4.1700     6.9480    22.5380 ca         1 Q29       0.069000
     12 C17          3.9320     6.3690    21.2990 ca         1 Q29      -0.058000
     13 C18          4.8560     6.4660    20.2680 ca         1 Q29      -0.166000
     14 C03          6.5860     8.9920    17.0770 c6         1 Q29      -0.070400
     15 O09          3.9110     5.5950    17.1930 o          1 Q29      -0.736000
     16 C14          6.2970     7.7460    21.7240 ca         1 Q29      -0.159000
     17 CL19         5.7190     8.3870    24.2760 cl         1 Q29      -0.220000
     18 CL20         2.9750     6.7990    23.7970 cl         1 Q29      -0.218000
     19 O21          7.0370     7.3010    19.5630 os         1 Q29      -0.368100
     20 H22          6.5900     8.8020    14.2820 hc         1 Q29       0.020700
     21 H23          8.1930     8.0980    14.1310 hc         1 Q29       0.020700
     22 H24          8.5890     8.3660    16.5470 hc         1 Q29       0.022200
     23 H25          8.1220     9.9100    15.8660 hc         1 Q29       0.022200
     24 H12          5.0310     7.7900    17.9340 hc         1 Q29       0.068700
     25 H11          4.7980     7.5360    15.5950 hc         1 Q29       0.037700
     26 H28          6.4090     6.3420    14.1660 hc         1 Q29       0.042200
     27 H29          7.5150     6.1580    15.5070 hc         1 Q29       0.042200
     28 H32          6.4630     5.7360    18.3280 h1         1 Q29       0.068200
     29 H31          7.8630     6.6880    17.8430 h1         1 Q29       0.068200
     30 H34          3.0030     5.8390    21.1370 ha         1 Q29       0.134000
     31 H35          4.6210     6.0220    19.3100 ha         1 Q29       0.199000
     32 H27          6.9100     9.4590    18.0110 hc         1 Q29       0.029700
     33 H26          5.8130     9.6410    16.6530 hc         1 Q29       0.029700
     34 H33          7.2230     8.2800    21.8870 ha         1 Q29       0.132000
@<TRIPOS>BOND
     1     1     2 1   
     2     1     5 1   
     3     1    20 1   
     4     1    21 1   
     5     2    14 1   
     6     2    22 1   
     7     2    23 1   
     8     3     4 1   
     9     3     8 1   
    10     3    14 1   
    11     3    24 1   
    12     4     5 1   
    13     4     6 1   
    14     4    25 1   
    15     5    26 1   
    16     5    27 1   
    17     6     7 1   
    18     6    15 1   
    19     8    19 1   
    20     8    28 1   
    21     8    29 1   
    22     9    13 ar  
    23     9    16 ar  
    24     9    19 1   
    25    10    11 ar  
    26    10    16 ar  
    27    10    17 1   
    28    11    12 ar  
    29    11    18 1   
    30    12    13 ar  
    31    12    30 1   
    32    13    31 1   
    33    14    32 1   
    34    14    33 1   
    35    16    34 1   
@<TRIPOS>SUBSTRUCTURE
     1 Q29         1 TEMP              0 ****  ****    0 ROOT
