@<TRIPOS>MOLECULE
Q2A
   63    68     1     0     0
SMALL
No Charge or Current Charge


@<TRIPOS>ATOM
      1 C12          0.0470     2.0300    -0.8070 c3         1 Q2A       0.078600
      2 C13         -1.3410     1.7620    -0.1580 c6         1 Q2A      -0.083700
      3 C14         -1.6120     2.6840     1.0620 c6         1 Q2A      -0.074400
      4 C15         -3.0230     2.4160     1.6330 c6         1 Q2A      -0.076400
      5 C17         -2.4760     1.9070    -1.2050 c6         1 Q2A       0.176800
      6 C19         -6.2270     1.1420    -1.1060 ca         1 Q2A      -0.104300
      7 C20         -7.3710     1.9580    -1.1880 ca         1 Q2A      -0.047000
      8 N1           1.7110     4.1610     0.7120 nb         1 Q2A      -0.223000
      9 C5           2.7760    -1.7840     0.2200 ca         1 Q2A      -0.113000
     10 C6           2.8170    -2.6610     1.3280 ca         1 Q2A      -0.042000
     11 C7           4.0260    -3.3090     1.6140 ca         1 Q2A       0.052100
     12 C9           5.1350    -2.2690    -0.2630 ca         1 Q2A      -0.087000
     13 O2          -9.0730    -2.7060     0.7170 o          1 Q2A      -0.539000
     14 O1           6.1990    -3.8490     1.2830 os         1 Q2A      -0.338100
     15 C21         -8.6040     1.4980    -0.6940 ca         1 Q2A      -0.129000
     16 O3          -6.5640    -3.0880     0.2540 o          1 Q2A      -0.539000
     17 C11          5.6710    -4.4960     2.4950 c5         1 Q2A       0.374600
     18 C10          3.9380    -1.5960    -0.5780 ca         1 Q2A       0.240000
     19 C8           5.1410    -3.1180     0.8480 ca         1 Q2A       0.078100
     20 C1           1.8730     2.8230     0.7110 ca         1 Q2A       0.129500
     21 C23         -7.5630    -0.6030    -0.0300 ca         1 Q2A      -0.338500
     22 C3           3.7340     3.0110     2.1980 ca         1 Q2A       0.449900
     23 C24         -6.3250    -0.1380    -0.5260 ca         1 Q2A       0.017000
     24 C4           1.8270     0.6200     0.4480 cc         1 Q2A       0.396700
     25 C16         -4.1020     2.5360     0.5320 c6         1 Q2A       0.164800
     26 N            3.6010     4.3470     2.2170 nb         1 Q2A      -0.301000
     27 C            2.5910     4.8570     1.4710 ca         1 Q2A       0.182900
     28 O            4.2380    -4.1830     2.6300 os         1 Q2A      -0.337100
     29 C2           2.8680     2.2010     1.4360 ca         1 Q2A      -0.094600
     30 C22         -8.7050     0.2220    -0.1150 ca         1 Q2A      -0.008000
     31 F           -7.3330    -1.8820     2.2740 f          1 Q2A      -0.264900
     32 I            3.9100    -0.2940    -2.3220 i          1 Q2A      -0.280000
     33 N2           1.2020     1.8100     0.0850 na         1 Q2A      -0.254300
     34 N3           2.8600     0.8050     1.2880 nd         1 Q2A      -0.537100
     35 N5          -3.8130     1.6280    -0.6150 n3         1 Q2A      -0.726600
     36 S            1.2370    -0.9400    -0.1630 ss         1 Q2A       0.016800
     37 H121         0.1600     1.3750    -1.6810 h1         1 Q2A       0.076200
     38 H122         0.0710     3.0640    -1.1760 h1         1 Q2A       0.076200
     39 H13         -1.3320     0.7180     0.1870 hc         1 Q2A       0.072700
     40 H142        -0.8620     2.5170     1.8470 hc         1 Q2A       0.052700
     41 H141        -1.5280     3.7380     0.7630 hc         1 Q2A       0.052700
     42 H151        -3.0610     1.4100     2.0730 hc         1 Q2A       0.051200
     43 H152        -3.2410     3.1220     2.4450 hc         1 Q2A       0.051200
     44 H172        -2.4530     2.9240    -1.6250 h1         1 Q2A       0.033200
     45 H171        -2.2800     1.2120    -2.0340 h1         1 Q2A       0.033200
     46 H182        -4.6010     0.9840    -2.4760 h1         1 Q2A       0.042700
     47 H181        -5.0050     2.6470    -2.0480 h1         1 Q2A       0.042700
     48 H20         -7.3070     2.9480    -1.6330 ha         1 Q2A       0.117000
     49 H6           1.9410    -2.8280     1.9490 ha         1 Q2A       0.153000
     50 H9           6.0260    -2.1350    -0.8690 ha         1 Q2A       0.149000
     51 H21         -9.4840     2.1340    -0.7590 ha         1 Q2A       0.123000
     52 H112         5.8060    -5.5820     2.4220 h2         1 Q2A       0.070200
     53 H111         6.2060    -4.1090     3.3700 h2         1 Q2A       0.070200
     54 H24         -5.4310    -0.7590    -0.4600 ha         1 Q2A       0.159000
     55 H161        -5.0780     2.2990     0.9790 h1         1 Q2A       0.034200
     56 H162        -4.1500     3.5800     0.1870 h1         1 Q2A       0.034200
     57 H            2.4750     5.9390     1.4810 h5         1 Q2A       0.046100
     58 H22         -9.6680    -0.1160     0.2660 ha         1 Q2A       0.139000
     59 HN41         5.5010     3.1260     3.2190 hn         1 Q2A       0.505000
     60 HN42         4.9990     1.5280     2.7780 hn         1 Q2A       0.505000
     61 C18         -4.8850     1.6350    -1.6380 c3         1 Q2A       0.215100
     62 N4           4.7490     2.5000     2.9450 nv         1 Q2A      -1.060900
     63 S1          -7.6750    -2.2450     0.7230 sy         1 Q2A       1.339400
@<TRIPOS>BOND
     1     1     2 1   
     2     1    33 1   
     3     1    37 1   
     4     1    38 1   
     5     2     3 1   
     6     2     5 1   
     7     2    39 1   
     8     3     4 1   
     9     3    40 1   
    10     3    41 1   
    11     4    25 1   
    12     4    42 1   
    13     4    43 1   
    14     5    35 1   
    15     5    44 1   
    16     5    45 1   
    17     6     7 ar  
    18     6    23 ar  
    19     6    61 1   
    20     7    15 ar  
    21     7    48 1   
    22     8    20 ar  
    23     8    27 ar  
    24     9    10 ar  
    25     9    18 ar  
    26     9    36 1   
    27    10    11 ar  
    28    10    49 1   
    29    11    19 ar  
    30    11    28 1   
    31    12    18 ar  
    32    12    19 ar  
    33    12    50 1   
    34    13    63 2   
    35    14    17 1   
    36    14    19 1   
    37    15    30 ar  
    38    15    51 1   
    39    16    63 2   
    40    17    28 1   
    41    17    52 1   
    42    17    53 1   
    43    18    32 1   
    44    20    29 ar  
    45    20    33 1   
    46    21    23 ar  
    47    21    30 ar  
    48    21    63 1   
    49    22    26 ar  
    50    22    29 ar  
    51    22    62 1   
    52    23    54 1   
    53    24    33 1   
    54    24    34 2   
    55    24    36 1   
    56    25    35 1   
    57    25    55 1   
    58    25    56 1   
    59    26    27 ar  
    60    27    57 1   
    61    29    34 1   
    62    30    58 1   
    63    31    63 1   
    64    35    61 1   
    65    46    61 1   
    66    47    61 1   
    67    59    62 1   
    68    60    62 1   
@<TRIPOS>SUBSTRUCTURE
     1 Q2A         1 TEMP              0 ****  ****    0 ROOT
