@<TRIPOS>MOLECULE
Q2A
   63    68     1     0     0
SMALL
bcc


@<TRIPOS>ATOM
      1 C12          0.0430     2.0740    -0.7090 c3         1 Q2A       0.049300
      2 C13         -1.3190     1.8480    -0.0610 c6         1 Q2A      -0.083700
      3 C14         -1.5810     2.7970     1.1030 c6         1 Q2A      -0.074400
      4 C15         -2.9960     2.5980     1.6290 c6         1 Q2A      -0.076400
      5 C17         -2.4030     2.0010    -1.1230 c6         1 Q2A       0.176800
      6 C19         -6.0110     1.0980    -1.1010 ca         1 Q2A      -0.104300
      7 C20         -7.2650     1.5660    -1.4770 ca         1 Q2A      -0.065000
      8 N1           1.7010     4.2810     0.5960 nb         1 Q2A      -0.749000
      9 C5           2.5040    -1.7390     0.3710 ca         1 Q2A       0.013900
     10 C6           2.5730    -2.6570     1.4310 ca         1 Q2A      -0.060000
     11 C7           3.6780    -3.4640     1.4960 ca         1 Q2A       0.052100
     12 C9           4.6600    -2.4840    -0.4810 ca         1 Q2A      -0.105000
     13 O2          -8.1410    -2.9790     0.8550 o          1 Q2A      -0.609800
     14 O1           5.6560    -4.2750     0.8540 os         1 Q2A      -0.314900
     15 C21         -8.4270     0.9050    -1.0980 ca         1 Q2A      -0.147000
     16 O3          -5.6550    -2.6820     1.0200 o          1 Q2A      -0.609800
     17 C11          5.2860    -4.8800     2.0900 c5         1 Q2A       0.328200
     18 C10          3.5280    -1.6650    -0.5680 ca         1 Q2A       0.102900
     19 C8           4.6980    -3.3760     0.5620 ca         1 Q2A       0.078100
     20 C1           1.8580     2.9740     0.7810 ca         1 Q2A       0.457800
     21 C23         -7.0990    -0.6940     0.0540 ca         1 Q2A      -0.338500
     22 C3           3.6870     3.2200     2.2710 ca         1 Q2A       0.778200
     23 C24         -5.9310    -0.0460    -0.3160 ca         1 Q2A      -0.001000
     24 C4           1.6850     0.8010     0.7320 cc         1 Q2A       0.396700
     25 C16         -4.0140     2.7150     0.5090 c6         1 Q2A       0.164800
     26 N            3.5430     4.5370     2.0950 nb         1 Q2A      -0.827000
     27 C            2.5830     4.9820     1.2870 ca         1 Q2A       0.708900
     28 O            3.9730    -4.4240     2.3960 os         1 Q2A      -0.313900
     29 C2           2.8050     2.3630     1.5880 ca         1 Q2A      -0.225200
     30 C22         -8.3570    -0.2420    -0.3270 ca         1 Q2A      -0.026000
     31 F           -7.1630    -1.4910     2.4900 f          1 Q2A      -0.264900
     32 I            3.4550    -0.2980    -2.1580 i          1 Q2A      -0.142900
     33 N2           1.1440     1.9510     0.2250 na         1 Q2A      -0.225000
     34 N3           2.6750     1.0010     1.5510 nd         1 Q2A      -0.537100
     35 N5          -3.7200     1.7750    -0.5600 n3         1 Q2A      -0.726600
     36 S            1.0400    -0.7580     0.2590 ss         1 Q2A      -0.110100
     37 H121         0.2070     1.3680    -1.5260 h1         1 Q2A       0.076200
     38 H122         0.0970     3.0790    -1.1310 h1         1 Q2A       0.076200
     39 H13         -1.3750     0.8170     0.3120 hc         1 Q2A       0.072700
     40 H142        -0.8570     2.6360     1.9050 hc         1 Q2A       0.052700
     41 H141        -1.4500     3.8310     0.7640 hc         1 Q2A       0.052700
     42 H151        -3.0810     1.6080     2.0880 hc         1 Q2A       0.051200
     43 H152        -3.2220     3.3320     2.4050 hc         1 Q2A       0.051200
     44 H172        -2.3220     3.0030    -1.5810 h1         1 Q2A       0.033200
     45 H171        -2.2380     1.2730    -1.9210 h1         1 Q2A       0.033200
     46 H182        -4.3800     1.2260    -2.4440 h1         1 Q2A       0.042700
     47 H181        -4.9930     2.7900    -1.9320 h1         1 Q2A       0.042700
     48 H20         -7.3390     2.4630    -2.0800 ha         1 Q2A       0.135000
     49 H6           1.7810    -2.7150     2.1650 ha         1 Q2A       0.171000
     50 H9           5.4650    -2.4290    -1.2000 ha         1 Q2A       0.167000
     51 H21         -9.3920     1.2870    -1.4010 ha         1 Q2A       0.141000
     52 H112         5.2850    -5.9650     1.9830 h2         1 Q2A       0.070200
     53 H111         5.9790    -4.5690     2.8760 h2         1 Q2A       0.070200
     54 H24         -4.9580    -0.4060    -0.0070 ha         1 Q2A       0.177000
     55 H161        -5.0150     2.5120     0.8950 h1         1 Q2A       0.034200
     56 H162        -4.0250     3.7510     0.1260 h1         1 Q2A       0.034200
     57 H            2.5210     6.0610     1.1870 h5         1 Q2A       0.046100
     58 H22         -9.2600    -0.7610    -0.0360 ha         1 Q2A       0.157000
     59 HN41         5.3030     3.4100     3.4910 hn         1 Q2A       0.449800
     60 HN42         4.8350     1.7860     3.1620 hn         1 Q2A       0.449800
     61 C18         -4.7500     1.7760    -1.5730 c3         1 Q2A       0.215100
     62 N4           4.6400     2.7690     3.0920 nv         1 Q2A      -0.950500
     63 S1          -6.9870    -2.1400     1.0360 sy         1 Q2A       1.481000
@<TRIPOS>BOND
     1     1     2 1   
     2     1    33 1   
     3     1    37 1   
     4     1    38 1   
     5     2     3 1   
     6     2     5 1   
     7     2    39 1   
     8     3     4 1   
     9     3    40 1   
    10     3    41 1   
    11     4    25 1   
    12     4    42 1   
    13     4    43 1   
    14     5    35 1   
    15     5    44 1   
    16     5    45 1   
    17     6     7 ar  
    18     6    23 ar  
    19     6    61 1   
    20     7    15 ar  
    21     7    48 1   
    22     8    20 ar  
    23     8    27 ar  
    24     9    10 ar  
    25     9    18 ar  
    26     9    36 1   
    27    10    11 ar  
    28    10    49 1   
    29    11    19 ar  
    30    11    28 1   
    31    12    18 ar  
    32    12    19 ar  
    33    12    50 1   
    34    13    63 2   
    35    14    17 1   
    36    14    19 1   
    37    15    30 ar  
    38    15    51 1   
    39    16    63 2   
    40    17    28 1   
    41    17    52 1   
    42    17    53 1   
    43    18    32 1   
    44    20    29 ar  
    45    20    33 1   
    46    21    23 ar  
    47    21    30 ar  
    48    21    63 1   
    49    22    26 ar  
    50    22    29 ar  
    51    22    62 1   
    52    23    54 1   
    53    24    33 1   
    54    24    34 2   
    55    24    36 1   
    56    25    35 1   
    57    25    55 1   
    58    25    56 1   
    59    26    27 ar  
    60    27    57 1   
    61    29    34 1   
    62    30    58 1   
    63    31    63 1   
    64    35    61 1   
    65    46    61 1   
    66    47    61 1   
    67    59    62 1   
    68    60    62 1   
@<TRIPOS>SUBSTRUCTURE
     1 Q2A         1 TEMP              0 ****  ****    0 ROOT
