@<TRIPOS>MOLECULE
Q2B
   41    44     1     0     0
SMALL
No Charge or Current Charge


@<TRIPOS>ATOM
      1 C10        117.4840   136.9530   104.2340 cc         1 Q2B      -0.154400
      2 C11        116.4610   137.7150   104.8290 cd         1 Q2B       0.024700
      3 C12        115.0290   137.8270   104.4560 ca         1 Q2B      -0.057800
      4 C13        114.5550   137.5480   103.1530 ca         1 Q2B      -0.093000
      5 C14        113.1920   137.6790   102.8370 ca         1 Q2B      -0.106500
      6 C15        112.2780   138.1050   103.8120 ca         1 Q2B      -0.096000
      7 C16        112.7350   138.4140   105.1020 ca         1 Q2B      -0.106500
      8 C17        114.0980   138.2850   105.4180 ca         1 Q2B      -0.093000
      9 O1         118.5010   135.0010    99.9630 o          1 Q2B      -0.400500
     10 C3         117.9780   136.3280   101.8530 c3         1 Q2B      -0.040400
     11 C4         117.3900   135.8390   103.2060 c3         1 Q2B      -0.005800
     12 C5         117.9960   134.5350   103.6880 cc         1 Q2B       0.114300
     13 C6         118.4060   134.1340   104.9330 cd         1 Q2B      -0.155000
     14 C7         118.8670   132.8080   104.8130 cd         1 Q2B      -0.190000
     15 C8         118.7130   132.4440   103.5050 cc         1 Q2B       0.132900
     16 O9         118.1680   133.4940   102.8000 os         1 Q2B      -0.249000
     17 N18        117.0290   138.5350   105.8340 na         1 Q2B      -0.212700
     18 C19        118.3870   138.3040   105.8190 ca         1 Q2B      -0.046200
     19 C20        119.3650   138.9100   106.6200 ca         1 Q2B      -0.127000
     20 C21        120.7100   138.5320   106.4270 ca         1 Q2B      -0.088000
     21 C22        121.0440   137.5700   105.4470 ca         1 Q2B      -0.134000
     22 C23        120.0370   136.9800   104.6550 ca         1 Q2B      -0.062000
     23 C24        118.7060   137.3760   104.8730 ca         1 Q2B      -0.089800
     24 O25        116.3890   135.4190   100.3510 o          1 Q2B      -0.400500
     25 H1         115.2380   137.2800   102.3550 ha         1 Q2B       0.115500
     26 H2         112.8470   137.4640   101.8280 ha         1 Q2B       0.119500
     27 H3         111.2240   138.2080   103.5660 ha         1 Q2B       0.118000
     28 H4         112.0310   138.7530   105.8590 ha         1 Q2B       0.119500
     29 H5         114.4210   138.5200   106.4290 ha         1 Q2B       0.115500
     30 H6         119.0730   136.3520   101.8820 h1         1 Q2B       0.097200
     31 H7         117.6040   137.3280   101.6080 h1         1 Q2B       0.097200
     32 H8         116.3340   135.5990   103.0540 hc         1 Q2B       0.099700
     33 H9         118.3770   134.7300   105.8390 ha         1 Q2B       0.148000
     34 H10        119.2670   132.1840   105.6060 ha         1 Q2B       0.142000
     35 H11        118.9290   131.5280   102.9710 h4         1 Q2B       0.056100
     36 H12        116.5390   139.2180   106.4000 hn         1 Q2B       0.355000
     37 H13        119.0970   139.6510   107.3690 ha         1 Q2B       0.116000
     38 H14        121.4930   138.9830   107.0340 ha         1 Q2B       0.113000
     39 H15        122.0830   137.2820   105.3020 ha         1 Q2B       0.115000
     40 H16        120.2910   136.2380   103.9030 ha         1 Q2B       0.119000
     41 N2         117.5860   135.4520   100.6630 no         1 Q2B       0.591000
@<TRIPOS>BOND
     1     1     2 2   
     2     1    11 1   
     3     1    23 1   
     4     2     3 1   
     5     2    17 1   
     6     3     4 ar  
     7     3     8 ar  
     8     4     5 ar  
     9     4    25 1   
    10     5     6 ar  
    11     5    26 1   
    12     6     7 ar  
    13     6    27 1   
    14     7     8 ar  
    15     7    28 1   
    16     8    29 1   
    17     9    41 1   
    18    10    11 1   
    19    10    30 1   
    20    10    31 1   
    21    10    41 1   
    22    11    12 1   
    23    11    32 1   
    24    12    13 2   
    25    12    16 1   
    26    13    14 1   
    27    13    33 1   
    28    14    15 2   
    29    14    34 1   
    30    15    16 1   
    31    15    35 1   
    32    17    18 1   
    33    17    36 1   
    34    18    19 ar  
    35    18    23 ar  
    36    19    20 ar  
    37    19    37 1   
    38    20    21 ar  
    39    20    38 1   
    40    21    22 ar  
    41    21    39 1   
    42    22    23 ar  
    43    22    40 1   
    44    24    41 1   
@<TRIPOS>SUBSTRUCTURE
     1 Q2B         1 TEMP              0 ****  ****    0 ROOT
