@<TRIPOS>MOLECULE
Q2B
   41    44     1     0     0
SMALL
abcg2


@<TRIPOS>ATOM
      1 C10        117.5410   137.0080   104.1660 cc         1 Q2B      -0.154400
      2 C11        116.5550   137.8130   104.6880 cd         1 Q2B       0.024700
      3 C12        115.1150   137.8510   104.4220 ca         1 Q2B      -0.057800
      4 C13        114.6240   137.8150   103.1160 ca         1 Q2B      -0.093000
      5 C14        113.2590   137.8440   102.8750 ca         1 Q2B      -0.106500
      6 C15        112.3640   137.9240   103.9330 ca         1 Q2B      -0.096000
      7 C16        112.8430   137.9740   105.2360 ca         1 Q2B      -0.106500
      8 C17        114.2070   137.9360   105.4810 ca         1 Q2B      -0.093000
      9 O1         118.5850   135.1570    99.9150 o          1 Q2B      -0.400500
     10 C3         118.0540   136.2900   101.8610 c3         1 Q2B      -0.040400
     11 C4         117.3590   135.9050   103.1680 c3         1 Q2B      -0.005800
     12 C5         117.8520   134.6030   103.7190 cc         1 Q2B       0.114300
     13 C6         117.9480   134.1170   104.9800 cd         1 Q2B      -0.155000
     14 C7         118.4410   132.7810   104.8570 cd         1 Q2B      -0.190000
     15 C8         118.6100   132.5630   103.5340 cc         1 Q2B       0.132900
     16 O9         118.2530   133.6640   102.8360 os         1 Q2B      -0.249000
     17 N18        117.1090   138.6530   105.6160 na         1 Q2B      -0.212700
     18 C19        118.4530   138.4350   105.6970 ca         1 Q2B      -0.046200
     19 C20        119.4200   139.0650   106.4780 ca         1 Q2B      -0.127000
     20 C21        120.7230   138.6240   106.3560 ca         1 Q2B      -0.088000
     21 C22        121.0580   137.5800   105.4780 ca         1 Q2B      -0.134000
     22 C23        120.0960   136.9600   104.7060 ca         1 Q2B      -0.062000
     23 C24        118.7670   137.3930   104.7990 ca         1 Q2B      -0.089800
     24 O25        116.5770   135.0000   100.6220 o          1 Q2B      -0.400500
     25 H1         115.3110   137.7920   102.2800 ha         1 Q2B       0.115500
     26 H2         112.8950   137.8170   101.8560 ha         1 Q2B       0.119500
     27 H3         111.2990   137.9510   103.7450 ha         1 Q2B       0.118000
     28 H4         112.1520   138.0370   106.0670 ha         1 Q2B       0.119500
     29 H5         114.5680   137.9570   106.5020 ha         1 Q2B       0.115500
     30 H6         119.1380   136.3000   101.9460 h1         1 Q2B       0.097200
     31 H7         117.7230   137.2810   101.5460 h1         1 Q2B       0.097200
     32 H8         116.2880   135.8100   102.9610 hc         1 Q2B       0.099700
     33 H9         117.7060   134.6450   105.8880 ha         1 Q2B       0.148000
     34 H10        118.6480   132.0830   105.6530 ha         1 Q2B       0.142000
     35 H11        118.9630   131.7210   102.9610 h4         1 Q2B       0.056100
     36 H12        116.6130   139.3930   106.0860 hn         1 Q2B       0.355000
     37 H13        119.1590   139.8680   107.1560 ha         1 Q2B       0.116000
     38 H14        121.4990   139.0910   106.9480 ha         1 Q2B       0.113000
     39 H15        122.0880   137.2560   105.4100 ha         1 Q2B       0.115000
     40 H16        120.3750   136.1540   104.0390 ha         1 Q2B       0.119000
     41 N2         117.7140   135.3950   100.7130 no         1 Q2B       0.591000
@<TRIPOS>BOND
     1     1     2 2   
     2     1    11 1   
     3     1    23 1   
     4     2     3 1   
     5     2    17 1   
     6     3     4 ar  
     7     3     8 ar  
     8     4     5 ar  
     9     4    25 1   
    10     5     6 ar  
    11     5    26 1   
    12     6     7 ar  
    13     6    27 1   
    14     7     8 ar  
    15     7    28 1   
    16     8    29 1   
    17     9    41 1   
    18    10    11 1   
    19    10    30 1   
    20    10    31 1   
    21    10    41 1   
    22    11    12 1   
    23    11    32 1   
    24    12    13 2   
    25    12    16 1   
    26    13    14 1   
    27    13    33 1   
    28    14    15 2   
    29    14    34 1   
    30    15    16 1   
    31    15    35 1   
    32    17    18 1   
    33    17    36 1   
    34    18    19 ar  
    35    18    23 ar  
    36    19    20 ar  
    37    19    37 1   
    38    20    21 ar  
    39    20    38 1   
    40    21    22 ar  
    41    21    39 1   
    42    22    23 ar  
    43    22    40 1   
    44    24    41 1   
@<TRIPOS>SUBSTRUCTURE
     1 Q2B         1 TEMP              0 ****  ****    0 ROOT
