@<TRIPOS>MOLECULE
Q2C
  111   118     1     0     0
SMALL
No Charge or Current Charge


@<TRIPOS>ATOM
      1 C02        -17.8400   -21.5560     8.7620 c5         1 Q2C       0.134300
      2 C03        -16.8410   -20.4200     8.3350 c5         1 Q2C       0.152300
      3 C05        -15.5930   -20.7870     9.1880 c5         1 Q2C       0.064300
      4 C06        -15.7010   -20.3580    10.6900 c3         1 Q2C       0.229600
      5 C14        -15.7640   -20.4920    15.3490 c3         1 Q2C       0.221600
      6 C15        -15.4720   -21.6280    16.3800 c5         1 Q2C       0.166300
      7 C17        -13.3400   -22.0380    17.3100 c5         1 Q2C       0.330300
      8 C19        -11.4280   -20.9180    16.0830 cc         1 Q2C       0.448700
      9 C21         -9.7690   -22.0350    16.8800 ca         1 Q2C      -0.081600
     10 C22        -10.8880   -22.6210    17.4150 ca         1 Q2C       0.119500
     11 C24         -9.5680   -24.0880    18.5690 ca         1 Q2C       0.165900
     12 C26         -8.5090   -22.5550    17.2430 ca         1 Q2C       0.453900
     13 C28        -13.9590   -20.8240    18.0760 c5         1 Q2C       0.084300
     14 C30        -15.4640   -21.1420    17.8740 c5         1 Q2C       0.114300
     15 C35        -16.8900   -22.7460     9.1990 c5         1 Q2C       0.256300
     16 C37        -18.2180   -23.2040    11.3040 cc         1 Q2C      -0.272300
     17 C39        -16.3110   -24.0480    12.5920 cc         1 Q2C      -0.092000
     18 C40        -15.2970   -24.4910    13.5610 ca         1 Q2C      -0.145000
     19 C41        -13.9180   -24.2690    13.3460 ca         1 Q2C       0.018000
     20 C42        -12.9370   -24.7070    14.2670 ca         1 Q2C      -0.132800
     21 C43        -11.5030   -24.5600    13.9600 cc         1 Q2C       0.315800
     22 C45         -9.7020   -23.7160    12.3210 c6         1 Q2C       0.230500
     23 C46         -9.1340   -25.0970    11.8620 c6         1 Q2C      -0.092400
     24 C47         -7.5890   -25.1890    12.0080 c6         1 Q2C      -0.084900
     25 C48         -6.9090   -23.8520    11.6310 c6         1 Q2C       0.163300
     26 C51         -3.1910   -23.3290    11.1390 c3         1 Q2C       0.155600
     27 C53         -1.5900   -24.7660    10.0300 c3         1 Q2C       0.148900
     28 C54         -7.3510   -22.6980    12.5870 c6         1 Q2C      -0.084900
     29 C55         -8.7410   -22.9270    13.2500 c6         1 Q2C      -0.092400
     30 C56        -10.6530   -25.2750    14.7640 cd         1 Q2C      -0.490200
     31 C57        -11.0330   -26.0160    15.9630 c          1 Q2C       0.592200
     32 C61        -13.3590   -25.3450    15.4550 ca         1 Q2C       0.172600
     33 C62        -14.7350   -25.6040    15.6470 ca         1 Q2C      -0.177000
     34 C63        -15.6930   -25.1630    14.7270 ca         1 Q2C      -0.049000
     35 C64        -15.9750   -23.8270    11.2700 cd         1 Q2C      -0.114000
     36 N18        -11.9440   -21.9200    16.9100 na         1 Q2C      -0.292300
     37 N20        -10.0810   -20.9590    16.0430 nd         1 Q2C      -0.565100
     38 N23        -10.8170   -23.6490    18.2810 nb         1 Q2C      -0.232000
     39 N25         -8.4020   -23.5920    18.0890 nb         1 Q2C      -0.307000
     40 N27         -7.3380   -22.0390    16.7810 nv         1 Q2C      -1.069900
     41 N36        -17.0440   -23.2700    10.5760 na         1 Q2C       0.057300
     42 N44        -11.0650   -23.8080    12.8800 nu         1 Q2C      -0.792200
     43 N58        -12.3860   -25.9440    16.3190 n          1 Q2C      -0.275000
     44 O01        -18.6820   -21.8720     7.6480 oh         1 Q2C      -0.667000
     45 O04        -16.5760   -20.4910     6.9160 oh         1 Q2C      -0.699000
     46 O07        -14.7870   -21.1310    11.4850 os         1 Q2C      -0.625400
     47 O12        -13.1330   -17.9610    14.0930 o          1 Q2C      -0.832000
     48 O13        -14.6800   -19.5450    15.3130 os         1 Q2C      -0.610400
     49 O16        -14.1630   -22.2200    16.1420 os         1 Q2C      -0.443000
     50 O29        -13.6230   -20.7690    19.4830 oh         1 Q2C      -0.716000
     51 O31        -15.8670   -22.1540    18.8080 oh         1 Q2C      -0.735000
     52 O32        -15.3410   -18.5230    13.0970 o          1 Q2C      -0.832000
     53 O34        -15.5450   -22.2260     9.0220 os         1 Q2C      -0.384000
     54 O49         -5.4770   -24.0220    11.6290 os         1 Q2C      -0.461000
     55 O52         -2.9490   -24.3060    10.1050 os         1 Q2C      -0.439000
     56 O60        -10.2010   -26.6340    16.6120 o          1 Q2C      -0.589000
     57 P08        -13.3260   -20.5910    11.8810 p5         1 Q2C       1.480800
     58 P11        -14.1730   -19.0100    13.8820 p5         1 Q2C       1.463800
     59 S38        -18.0050   -23.7230    12.9570 ss         1 Q2C       0.405000
     60 H1         -18.4500   -21.2110     9.6060 h1         1 Q2C       0.056700
     61 H2         -17.2330   -19.4270     8.6030 h1         1 Q2C       0.072700
     62 H3         -14.6720   -20.3490     8.7800 h1         1 Q2C       0.133700
     63 H4         -15.4910   -19.2840    10.7480 h1         1 Q2C       0.051700
     64 H5         -16.7240   -20.5060    11.0560 h1         1 Q2C       0.051700
     65 H6         -16.6990   -19.9890    15.6280 h1         1 Q2C       0.024200
     66 H7         -15.9230   -20.9580    14.3670 h1         1 Q2C       0.024200
     67 H8         -16.2340   -22.4050    16.2360 h1         1 Q2C       0.047700
     68 H9         -13.4120   -22.9390    17.9330 h2         1 Q2C       0.094700
     69 H10        -12.0620   -20.2010    15.5760 h5         1 Q2C       0.121800
     70 H11         -9.4940   -24.9260    19.2610 h5         1 Q2C       0.026100
     71 H12        -13.6970   -19.8800    17.5760 h1         1 Q2C       0.105700
     72 H13        -16.0790   -20.2400    18.0030 h1         1 Q2C       0.067700
     73 H14        -17.0360   -23.6130     8.5440 h2         1 Q2C       0.114700
     74 H15        -19.1680   -22.8490    10.9250 h5         1 Q2C       0.182000
     75 H16        -13.6070   -23.7710    12.4370 ha         1 Q2C       0.173000
     76 H17         -9.7720   -23.1060    11.4050 h1         1 Q2C       0.085700
     77 H18         -9.4090   -25.2470    10.8090 hc         1 Q2C       0.059200
     78 H19         -9.5970   -25.9340    12.3970 hc         1 Q2C       0.059200
     79 H20         -7.2070   -26.0010    11.3740 hc         1 Q2C       0.048200
     80 H21         -7.3290   -25.4540    13.0430 hc         1 Q2C       0.048200
     81 H22         -7.2230   -23.5990    10.6070 h1         1 Q2C       0.033700
     82 H23         -4.8140   -22.0320    11.7410 h1         1 Q2C       0.033700
     83 H24         -4.9810   -22.6710    10.0920 h1         1 Q2C       0.033700
     84 H25         -2.9330   -23.7300    12.1280 h1         1 Q2C       0.023700
     85 H26         -2.5810   -22.4330    10.9640 h1         1 Q2C       0.023700
     86 H27         -1.4820   -25.5030     9.2240 h1         1 Q2C       0.021033
     87 H28         -0.9070   -23.9310     9.8240 h1         1 Q2C       0.021033
     88 H29         -1.2870   -25.2410    10.9720 h1         1 Q2C       0.021033
     89 H30         -6.6040   -22.5560    13.3800 hc         1 Q2C       0.048200
     90 H31         -7.3730   -21.7600    12.0170 hc         1 Q2C       0.048200
     91 H32         -8.6000   -23.4480    14.2030 hc         1 Q2C       0.059200
     92 H33         -9.1860   -21.9560    13.5040 hc         1 Q2C       0.059200
     93 H34         -9.5920   -25.3170    14.5880 ha         1 Q2C       0.214000
     94 H35        -11.9250   -26.4700    18.3440 h1         1 Q2C       0.051033
     95 H36        -13.5100   -25.7150    18.1080 h1         1 Q2C       0.051033
     96 H37        -13.2440   -27.4100    17.5910 h1         1 Q2C       0.051033
     97 H38        -15.0850   -26.1620    16.5100 ha         1 Q2C       0.119000
     98 H39        -16.7420   -25.3760    14.9160 ha         1 Q2C       0.092000
     99 H40        -15.0170   -23.9500    10.7790 h4         1 Q2C       0.250000
    100 H41         -6.5010   -22.6090    16.8510 hn         1 Q2C       0.499000
    101 H42         -7.3950   -21.3890    16.0020 hn         1 Q2C       0.499000
    102 H43        -11.7160   -23.0720    12.5440 hn         1 Q2C       0.568000
    103 H44        -18.1680   -21.5020     6.8840 ho         1 Q2C       0.496000
    104 H45        -15.9500   -19.7620     6.6920 ho         1 Q2C       0.519000
    105 H47        -12.6830   -20.4750    19.5560 ho         1 Q2C       0.510000
    106 H48        -15.2820   -21.9810    19.5890 ho         1 Q2C       0.514000
    107 C59        -12.7880   -26.4150    17.6690 c3         1 Q2C       0.068300
    108 C50         -4.6860   -22.9260    11.1180 c3         1 Q2C       0.165600
    109 O09        -12.3390   -21.6940    11.7020 o          1 Q2C      -0.845500
    110 O10        -13.5370   -20.3690    13.4200 os         1 Q2C      -0.720800
    111 O33        -12.9220   -19.3750    11.1190 o          1 Q2C      -0.845500
@<TRIPOS>BOND
     1     1     2 1   
     2     1    15 1   
     3     1    44 1   
     4     1    60 1   
     5     2     3 1   
     6     2    45 1   
     7     2    61 1   
     8     3     4 1   
     9     3    53 1   
    10     3    62 1   
    11     4    46 1   
    12     4    63 1   
    13     4    64 1   
    14     5     6 1   
    15     5    48 1   
    16     5    65 1   
    17     5    66 1   
    18     6    14 1   
    19     6    49 1   
    20     6    67 1   
    21     7    13 1   
    22     7    36 1   
    23     7    49 1   
    24     7    68 1   
    25     8    36 1   
    26     8    37 2   
    27     8    69 1   
    28     9    10 ar  
    29     9    12 ar  
    30     9    37 1   
    31    10    36 1   
    32    10    38 ar  
    33    11    38 ar  
    34    11    39 ar  
    35    11    70 1   
    36    12    39 ar  
    37    12    40 1   
    38    13    14 1   
    39    13    50 1   
    40    13    71 1   
    41    14    51 1   
    42    14    72 1   
    43    15    41 1   
    44    15    53 1   
    45    15    73 1   
    46    16    41 2   
    47    16    59 1   
    48    16    74 1   
    49    17    18 1   
    50    17    35 2   
    51    17    59 1   
    52    18    19 ar  
    53    18    34 ar  
    54    19    20 ar  
    55    19    75 1   
    56    20    21 1   
    57    20    32 ar  
    58    21    30 2   
    59    21    42 1   
    60    22    23 1   
    61    22    29 1   
    62    22    42 1   
    63    22    76 1   
    64    23    24 1   
    65    23    77 1   
    66    23    78 1   
    67    24    25 1   
    68    24    79 1   
    69    24    80 1   
    70    25    28 1   
    71    25    54 1   
    72    25    81 1   
    73    26    55 1   
    74    26    84 1   
    75    26    85 1   
    76    26   108 1   
    77    27    55 1   
    78    27    86 1   
    79    27    87 1   
    80    27    88 1   
    81    28    29 1   
    82    28    89 1   
    83    28    90 1   
    84    29    91 1   
    85    29    92 1   
    86    30    31 1   
    87    30    93 1   
    88    31    43 1   
    89    31    56 2   
    90    32    33 ar  
    91    32    43 1   
    92    33    34 ar  
    93    33    97 1   
    94    34    98 1   
    95    35    41 1   
    96    35    99 1   
    97    40   100 1   
    98    40   101 1   
    99    42   102 1   
   100    43   107 1   
   101    44   103 1   
   102    45   104 1   
   103    46    57 1   
   104    47    58 1   
   105    48    58 1   
   106    50   105 1   
   107    51   106 1   
   108    52    58 1   
   109    54   108 1   
   110    57   109 1   
   111    57   110 1   
   112    57   111 1   
   113    58   110 1   
   114    82   108 1   
   115    83   108 1   
   116    94   107 1   
   117    95   107 1   
   118    96   107 1   
@<TRIPOS>SUBSTRUCTURE
     1 Q2C         1 TEMP              0 ****  ****    0 ROOT
