@<TRIPOS>MOLECULE
Q2C
  111   118     1     0     0
SMALL
abcg2


@<TRIPOS>ATOM
      1 C02        -17.9330   -21.1730     9.1990 c5         1 Q2C       0.134300
      2 C03        -16.9150   -20.2670     8.4860 c5         1 Q2C       0.152300
      3 C05        -15.5990   -20.8280     9.0120 c5         1 Q2C       0.064300
      4 C06        -15.2440   -20.2730    10.3930 c3         1 Q2C       0.229600
      5 C14        -14.4970   -20.9860    14.5070 c3         1 Q2C       0.221600
      6 C15        -14.8970   -21.5720    15.8430 c5         1 Q2C       0.166300
      7 C17        -13.3230   -22.0520    17.4920 c5         1 Q2C       0.330300
      8 C19        -10.9780   -21.7750    16.5900 cc         1 Q2C       0.448700
      9 C21         -9.8830   -22.9950    17.9240 ca         1 Q2C      -0.081600
     10 C22        -11.2030   -23.0830    18.3310 ca         1 Q2C       0.119500
     11 C24        -10.6950   -24.4340    19.9860 ca         1 Q2C       0.165900
     12 C26         -8.9480   -23.7370    18.6660 ca         1 Q2C       0.453900
     13 C28        -13.7040   -20.5780    17.6450 c5         1 Q2C       0.084300
     14 C30        -15.0770   -20.5550    16.9680 c5         1 Q2C       0.114300
     15 C35        -17.1310   -22.4970     9.3640 c5         1 Q2C       0.256300
     16 C37        -18.1870   -22.9730    11.5780 cc         1 Q2C      -0.272300
     17 C39        -16.2380   -23.9940    12.6220 cc         1 Q2C      -0.092000
     18 C40        -15.2710   -24.5670    13.5490 ca         1 Q2C      -0.145000
     19 C41        -13.9140   -24.4260    13.2990 ca         1 Q2C       0.018000
     20 C42        -12.9420   -24.9060    14.1720 ca         1 Q2C      -0.132800
     21 C43        -11.5110   -24.7410    13.9110 cc         1 Q2C       0.315800
     22 C45         -9.7660   -23.8720    12.3410 c6         1 Q2C       0.230500
     23 C46         -8.9340   -25.1450    12.0800 c6         1 Q2C      -0.092400
     24 C47         -7.4320   -24.8830    12.2140 c6         1 Q2C      -0.084900
     25 C48         -7.0890   -23.5200    11.6360 c6         1 Q2C       0.163300
     26 C51         -3.7490   -22.3910    10.6100 c3         1 Q2C       0.155600
     27 C53         -2.0560   -23.6550     9.6190 c3         1 Q2C       0.148900
     28 C54         -7.7400   -22.4010    12.4730 c6         1 Q2C      -0.084900
     29 C55         -9.0030   -22.8690    13.2090 c6         1 Q2C      -0.092400
     30 C56        -10.6480   -25.2300    14.8600 cd         1 Q2C      -0.490200
     31 C57        -11.0620   -25.8900    16.0550 c          1 Q2C       0.592200
     32 C61        -13.3510   -25.5450    15.3610 ca         1 Q2C       0.172600
     33 C62        -14.7260   -25.7070    15.5980 ca         1 Q2C      -0.177000
     34 C63        -15.6630   -25.2300    14.7140 ca         1 Q2C      -0.049000
     35 C64        -16.0380   -23.5970    11.3390 cd         1 Q2C      -0.114000
     36 N18        -11.9010   -22.2880    17.4650 na         1 Q2C      -0.292300
     37 N20         -9.7640   -22.1730    16.8320 nd         1 Q2C      -0.565100
     38 N23        -11.6650   -23.7910    19.3590 nb         1 Q2C      -0.232000
     39 N25         -9.3940   -24.4450    19.7090 nb         1 Q2C      -0.307000
     40 N27         -7.6440   -23.7440    18.3790 nv         1 Q2C      -1.069900
     41 N36        -17.1410   -23.0080    10.7820 na         1 Q2C       0.057300
     42 N44        -11.1230   -24.1480    12.7730 nu         1 Q2C      -0.792200
     43 N58        -12.4350   -26.0050    16.2710 n          1 Q2C      -0.275000
     44 O01        -19.1000   -21.3140     8.4570 oh         1 Q2C      -0.667000
     45 O04        -17.0600   -20.4510     7.1070 oh         1 Q2C      -0.699000
     46 O07        -14.4190   -21.1420    11.1190 os         1 Q2C      -0.625400
     47 O12        -11.2070   -19.1420    13.8880 o          1 Q2C      -0.832000
     48 O13        -13.2720   -20.3080    14.6410 os         1 Q2C      -0.610400
     49 O16        -13.9020   -22.4900    16.3000 os         1 Q2C      -0.443000
     50 O29        -13.7200   -20.2380    19.0030 oh         1 Q2C      -0.716000
     51 O31        -16.0670   -21.0370    17.8430 oh         1 Q2C      -0.735000
     52 O32        -13.4870   -18.6350    12.7020 o          1 Q2C      -0.832000
     53 O34        -15.8290   -22.2410     9.0180 os         1 Q2C      -0.384000
     54 O49         -5.6850   -23.3980    11.5670 os         1 Q2C      -0.461000
     55 O52         -3.4350   -23.5200     9.8370 os         1 Q2C      -0.439000
     56 O60        -10.2660   -26.3460    16.8740 o          1 Q2C      -0.589000
     57 P08        -12.8000   -21.2550    10.9080 p5         1 Q2C       1.480800
     58 P11        -12.5370   -19.5780    13.3660 p5         1 Q2C       1.463800
     59 S38        -17.8600   -23.6240    13.0880 ss         1 Q2C       0.405000
     60 H1         -18.1340   -20.7380    10.1850 h1         1 Q2C       0.056700
     61 H2         -17.0560   -19.2200     8.7810 h1         1 Q2C       0.072700
     62 H3         -14.7640   -20.6600     8.3280 h1         1 Q2C       0.133700
     63 H4         -14.7950   -19.2870    10.2540 h1         1 Q2C       0.051700
     64 H5         -16.1400   -20.1210    11.0020 h1         1 Q2C       0.051700
     65 H6         -15.2970   -20.3190    14.1660 h1         1 Q2C       0.024200
     66 H7         -14.4200   -21.7970    13.7770 h1         1 Q2C       0.024200
     67 H8         -15.8350   -22.1160    15.6860 h1         1 Q2C       0.047700
     68 H9         -13.7000   -22.6210    18.3500 h2         1 Q2C       0.094700
     69 H10        -11.2590   -21.1080    15.7900 h5         1 Q2C       0.121800
     70 H11        -10.9940   -25.0330    20.8400 h5         1 Q2C       0.026100
     71 H12        -13.0110   -19.9480    17.0800 h1         1 Q2C       0.105700
     72 H13        -15.3310   -19.5590    16.5820 h1         1 Q2C       0.067700
     73 H14        -17.5410   -23.3070     8.7570 h2         1 Q2C       0.114700
     74 H15        -19.1550   -22.5840    11.3000 h5         1 Q2C       0.182000
     75 H16        -13.6160   -23.9010    12.4020 ha         1 Q2C       0.173000
     76 H17         -9.9100   -23.3800    11.3760 h1         1 Q2C       0.085700
     77 H18         -9.1570   -25.5040    11.0730 hc         1 Q2C       0.059200
     78 H19         -9.2200   -25.9490    12.7580 hc         1 Q2C       0.059200
     79 H20         -6.8740   -25.6640    11.6950 hc         1 Q2C       0.048200
     80 H21         -7.1280   -24.9230    13.2650 hc         1 Q2C       0.048200
     81 H22         -7.4950   -23.4770    10.6120 h1         1 Q2C       0.033700
     82 H23         -5.4590   -21.3460    11.3030 h1         1 Q2C       0.033700
     83 H24         -5.7460   -22.2740     9.8300 h1         1 Q2C       0.033700
     84 H25         -3.2430   -22.4290    11.5860 h1         1 Q2C       0.023700
     85 H26         -3.4150   -21.4670    10.1170 h1         1 Q2C       0.023700
     86 H27         -1.8940   -24.5520     9.0220 h1         1 Q2C       0.021033
     87 H28         -1.6370   -22.7990     9.0760 h1         1 Q2C       0.021033
     88 H29         -1.4980   -23.7590    10.5580 h1         1 Q2C       0.021033
     89 H30         -7.0130   -22.0420    13.2070 hc         1 Q2C       0.048200
     90 H31         -7.9850   -21.5500    11.8320 hc         1 Q2C       0.048200
     91 H32         -8.7330   -23.3050    14.1710 hc         1 Q2C       0.059200
     92 H33         -9.6430   -22.0120    13.4280 hc         1 Q2C       0.059200
     93 H34         -9.5790   -25.1390    14.7480 ha         1 Q2C       0.214000
     94 H35        -12.0380   -26.9070    18.0950 h1         1 Q2C       0.051033
     95 H36        -13.5300   -25.9700    18.0650 h1         1 Q2C       0.051033
     96 H37        -13.4570   -27.5530    17.2670 h1         1 Q2C       0.051033
     97 H38        -15.0760   -26.2100    16.4860 ha         1 Q2C       0.119000
     98 H39        -16.7100   -25.3880    14.9430 ha         1 Q2C       0.092000
     99 H40        -15.1290   -23.6910    10.7690 h4         1 Q2C       0.250000
    100 H41         -7.0180   -24.3440    18.8880 hn         1 Q2C       0.499000
    101 H42         -7.2960   -23.2860    17.5550 hn         1 Q2C       0.499000
    102 H43        -11.8080   -23.7170    12.1540 hn         1 Q2C       0.568000
    103 H44        -19.8340   -21.5100     9.0460 ho         1 Q2C       0.496000
    104 H45        -16.4250   -19.8840     6.6570 ho         1 Q2C       0.519000
    105 H47        -13.6070   -19.2870    19.0890 ho         1 Q2C       0.510000
    106 H48        -15.9170   -20.6340    18.7060 ho         1 Q2C       0.514000
    107 C59        -12.8970   -26.6440    17.4900 c3         1 Q2C       0.068300
    108 C50         -5.2410   -22.3020    10.8070 c3         1 Q2C       0.165600
    109 O09        -12.5040   -22.7240    10.7310 o          1 Q2C      -0.845500
    110 O10        -12.2690   -20.9000    12.4130 os         1 Q2C      -0.720800
    111 O33        -12.3240   -20.2560     9.9060 o          1 Q2C      -0.845500
@<TRIPOS>BOND
     1     1     2 1   
     2     1    15 1   
     3     1    44 1   
     4     1    60 1   
     5     2     3 1   
     6     2    45 1   
     7     2    61 1   
     8     3     4 1   
     9     3    53 1   
    10     3    62 1   
    11     4    46 1   
    12     4    63 1   
    13     4    64 1   
    14     5     6 1   
    15     5    48 1   
    16     5    65 1   
    17     5    66 1   
    18     6    14 1   
    19     6    49 1   
    20     6    67 1   
    21     7    13 1   
    22     7    36 1   
    23     7    49 1   
    24     7    68 1   
    25     8    36 1   
    26     8    37 2   
    27     8    69 1   
    28     9    10 ar  
    29     9    12 ar  
    30     9    37 1   
    31    10    36 1   
    32    10    38 ar  
    33    11    38 ar  
    34    11    39 ar  
    35    11    70 1   
    36    12    39 ar  
    37    12    40 1   
    38    13    14 1   
    39    13    50 1   
    40    13    71 1   
    41    14    51 1   
    42    14    72 1   
    43    15    41 1   
    44    15    53 1   
    45    15    73 1   
    46    16    41 2   
    47    16    59 1   
    48    16    74 1   
    49    17    18 1   
    50    17    35 2   
    51    17    59 1   
    52    18    19 ar  
    53    18    34 ar  
    54    19    20 ar  
    55    19    75 1   
    56    20    21 1   
    57    20    32 ar  
    58    21    30 2   
    59    21    42 1   
    60    22    23 1   
    61    22    29 1   
    62    22    42 1   
    63    22    76 1   
    64    23    24 1   
    65    23    77 1   
    66    23    78 1   
    67    24    25 1   
    68    24    79 1   
    69    24    80 1   
    70    25    28 1   
    71    25    54 1   
    72    25    81 1   
    73    26    55 1   
    74    26    84 1   
    75    26    85 1   
    76    26   108 1   
    77    27    55 1   
    78    27    86 1   
    79    27    87 1   
    80    27    88 1   
    81    28    29 1   
    82    28    89 1   
    83    28    90 1   
    84    29    91 1   
    85    29    92 1   
    86    30    31 1   
    87    30    93 1   
    88    31    43 1   
    89    31    56 2   
    90    32    33 ar  
    91    32    43 1   
    92    33    34 ar  
    93    33    97 1   
    94    34    98 1   
    95    35    41 1   
    96    35    99 1   
    97    40   100 1   
    98    40   101 1   
    99    42   102 1   
   100    43   107 1   
   101    44   103 1   
   102    45   104 1   
   103    46    57 1   
   104    47    58 1   
   105    48    58 1   
   106    50   105 1   
   107    51   106 1   
   108    52    58 1   
   109    54   108 1   
   110    57   109 1   
   111    57   110 1   
   112    57   111 1   
   113    58   110 1   
   114    82   108 1   
   115    83   108 1   
   116    94   107 1   
   117    95   107 1   
   118    96   107 1   
@<TRIPOS>SUBSTRUCTURE
     1 Q2C         1 TEMP              0 ****  ****    0 ROOT
