@<TRIPOS>MOLECULE
Q2D
   63    68     1     0     0
SMALL
No Charge or Current Charge


@<TRIPOS>ATOM
      1 C1           1.5240    -2.3740    -0.7990 ca         1 Q2D       0.129500
      2 C2           2.6460    -1.9990    -1.5080 ca         1 Q2D      -0.096600
      3 C3           3.2350    -2.9540    -2.3610 ca         1 Q2D       0.452900
      4 C4           2.1050    -0.2750    -0.3700 cc         1 Q2D       0.399700
      5 C7           5.2490     2.9910    -1.4110 ca         1 Q2D       0.050100
      6 C9           6.0980     1.5620     0.3410 ca         1 Q2D      -0.086000
      7 C10          4.7750     1.2140     0.6780 ca         1 Q2D       0.242000
      8 C11          7.1230     3.7540    -2.3060 c5         1 Q2D       0.373600
      9 C13         -1.3570    -1.0140     0.1330 c6         1 Q2D      -0.084700
     10 C14         -1.4270     0.3410    -0.6220 c6         1 Q2D      -0.077400
     11 N            2.7210    -4.1880    -2.4870 nb         1 Q2D      -0.303000
     12 C            1.6180    -4.4530    -1.7450 ca         1 Q2D       0.183900
     13 O            5.6560     3.8470    -2.3840 os         1 Q2D      -0.337100
     14 C15         -2.8240     0.5310    -1.2540 c6         1 Q2D      -0.074400
     15 C16         -3.9410     0.3710    -0.1960 c6         1 Q2D       0.162800
     16 C17         -2.5220    -1.1210     1.1520 c6         1 Q2D       0.174800
     17 C19         -6.3320    -1.2110     0.7600 ca         1 Q2D      -0.102300
     18 C20         -6.6020    -2.1860    -0.2190 ca         1 Q2D      -0.022000
     19 C21         -7.8540    -2.2230    -0.8540 ca         1 Q2D      -0.133000
     20 C22         -8.8480    -1.2890    -0.5170 ca         1 Q2D      -0.004000
     21 C23         -8.5870    -0.3090     0.4650 ca         1 Q2D      -0.338500
     22 C24         -7.3250    -0.2720     1.1000 ca         1 Q2D      -0.007000
     23 C5           3.6810     1.7630    -0.0470 ca         1 Q2D      -0.111000
     24 C6           3.9210     2.6730    -1.1020 ca         1 Q2D      -0.044000
     25 C8           6.2970     2.4550    -0.7170 ca         1 Q2D       0.079100
     26 F           -9.5120     2.0910    -0.1610 f          1 Q2D      -0.265900
     27 N1           0.9850    -3.6050    -0.8990 nb         1 Q2D      -0.222000
     28 N2           1.1750    -1.2690    -0.0740 na         1 Q2D      -0.256300
     29 N3           3.0310    -0.6730    -1.2610 nd         1 Q2D      -0.538100
     30 N4           4.3400    -2.6870    -3.1080 nv         1 Q2D      -1.063900
     31 N5          -3.8480    -0.9440     0.5000 n3         1 Q2D      -0.720600
     32 O1           7.4970     2.9040    -1.1630 os         1 Q2D      -0.337100
     33 O2         -11.1880     0.3990     0.5140 o          1 Q2D      -0.540000
     34 O3          -9.5860     1.4650     2.2330 o          1 Q2D      -0.540000
     35 S            1.9850     1.3380     0.3650 ss         1 Q2D       0.007800
     36 S1          -9.8610     0.9040     0.9000 sy         1 Q2D       1.340400
     37 H9           6.9400     1.1510     0.8900 ha         1 Q2D       0.150000
     38 H111         7.5030     3.3000    -3.2290 h2         1 Q2D       0.070700
     39 H112         7.5500     4.7550    -2.1760 h2         1 Q2D       0.070700
     40 H121         0.1620    -0.4500     1.5850 h1         1 Q2D       0.072200
     41 H122        -0.0230    -2.1920     1.3750 h1         1 Q2D       0.072200
     42 H13         -1.4710    -1.8290    -0.5950 hc         1 Q2D       0.084700
     43 H142        -1.2210     1.1690     0.0710 hc         1 Q2D       0.047200
     44 H141        -0.6610     0.3850    -1.4080 hc         1 Q2D       0.047200
     45 H            1.1950    -5.4520    -1.8390 h5         1 Q2D       0.046100
     46 H151        -2.8940     1.5220    -1.7220 hc         1 Q2D       0.050700
     47 H152        -2.9730    -0.2060    -2.0560 hc         1 Q2D       0.050700
     48 H162        -3.8660     1.1930     0.5320 h1         1 Q2D       0.035200
     49 H161        -4.9110     0.4750    -0.7020 h1         1 Q2D       0.035200
     50 H172        -2.4740    -2.1070     1.6390 h1         1 Q2D       0.033200
     51 H171        -2.3850    -0.3650     1.9410 h1         1 Q2D       0.033200
     52 H181        -4.9690    -0.4040     2.2230 h1         1 Q2D       0.044200
     53 H182        -4.8280    -2.1400     1.9520 h1         1 Q2D       0.044200
     54 H20         -5.8360    -2.9090    -0.4900 ha         1 Q2D       0.137000
     55 H21         -8.0540    -2.9770    -1.6120 ha         1 Q2D       0.124000
     56 H22         -9.8130    -1.3310    -1.0220 ha         1 Q2D       0.140000
     57 H24         -7.1120     0.4840     1.8560 ha         1 Q2D       0.137000
     58 H6           3.1010     3.1120    -1.6650 ha         1 Q2D       0.150000
     59 HN42         4.6020    -1.7080    -3.1920 hn         1 Q2D       0.507000
     60 HN41         4.5330    -3.2810    -3.9090 hn         1 Q2D       0.507000
     61 C12          0.0130    -1.2370     0.8340 c3         1 Q2D       0.084600
     62 C18         -4.9680    -1.1770     1.4420 c3         1 Q2D       0.212100
     63 I            4.4550    -0.1530     2.3400 i          1 Q2D      -0.275000
@<TRIPOS>BOND
     1     1     2 ar  
     2     1    27 ar  
     3     1    28 1   
     4     2     3 ar  
     5     2    29 1   
     6     3    11 ar  
     7     3    30 1   
     8     4    28 1   
     9     4    29 2   
    10     4    35 1   
    11     5    13 1   
    12     5    24 ar  
    13     5    25 ar  
    14     6     7 ar  
    15     6    25 ar  
    16     6    37 1   
    17     7    23 ar  
    18     7    63 1   
    19     8    13 1   
    20     8    32 1   
    21     8    38 1   
    22     8    39 1   
    23     9    10 1   
    24     9    16 1   
    25     9    42 1   
    26     9    61 1   
    27    10    14 1   
    28    10    43 1   
    29    10    44 1   
    30    11    12 ar  
    31    12    27 ar  
    32    12    45 1   
    33    14    15 1   
    34    14    46 1   
    35    14    47 1   
    36    15    31 1   
    37    15    48 1   
    38    15    49 1   
    39    16    31 1   
    40    16    50 1   
    41    16    51 1   
    42    17    18 ar  
    43    17    22 ar  
    44    17    62 1   
    45    18    19 ar  
    46    18    54 1   
    47    19    20 ar  
    48    19    55 1   
    49    20    21 ar  
    50    20    56 1   
    51    21    22 ar  
    52    21    36 1   
    53    22    57 1   
    54    23    24 ar  
    55    23    35 1   
    56    24    58 1   
    57    25    32 1   
    58    26    36 1   
    59    28    61 1   
    60    30    59 1   
    61    30    60 1   
    62    31    62 1   
    63    33    36 2   
    64    34    36 2   
    65    40    61 1   
    66    41    61 1   
    67    52    62 1   
    68    53    62 1   
@<TRIPOS>SUBSTRUCTURE
     1 Q2D         1 TEMP              0 ****  ****    0 ROOT
