@<TRIPOS>MOLECULE
Q2D
   63    68     1     0     0
SMALL
abcg2


@<TRIPOS>ATOM
      1 C1           1.3930    -2.4290    -0.9570 ca         1 Q2D       0.129500
      2 C2           2.4910    -2.0910    -1.7300 ca         1 Q2D      -0.096600
      3 C3           3.0150    -3.1100    -2.5470 ca         1 Q2D       0.452900
      4 C4           1.9850    -0.3530    -0.6560 cc         1 Q2D       0.399700
      5 C7           5.2710     3.0480    -1.2210 ca         1 Q2D       0.050100
      6 C9           5.9580     1.5970     0.5830 ca         1 Q2D      -0.086000
      7 C10          4.6200     1.2000     0.6970 ca         1 Q2D       0.242000
      8 C11          7.2360     3.8590    -1.8600 c5         1 Q2D       0.373600
      9 C13         -1.3660    -0.9740    -0.0070 c6         1 Q2D      -0.084700
     10 C14         -1.4040     0.2630    -0.8960 c6         1 Q2D      -0.077400
     11 N            2.4180    -4.3070    -2.5130 nb         1 Q2D      -0.303000
     12 C            1.3680    -4.4870    -1.7170 ca         1 Q2D       0.183900
     13 O            5.8300     3.9460    -2.0600 os         1 Q2D      -0.337100
     14 C15         -2.8040     0.4600    -1.4600 c6         1 Q2D      -0.074400
     15 C16         -3.8400     0.4810    -0.3510 c6         1 Q2D       0.162800
     16 C17         -2.4600    -0.8970     1.0530 c6         1 Q2D       0.174800
     17 C19         -6.1730    -0.9840     0.8220 ca         1 Q2D      -0.102300
     18 C20         -6.3560    -1.9790    -0.1360 ca         1 Q2D      -0.022000
     19 C21         -7.6020    -2.2180    -0.6960 ca         1 Q2D      -0.133000
     20 C22         -8.6980    -1.4600    -0.3150 ca         1 Q2D      -0.004000
     21 C23         -8.5050    -0.4670     0.6350 ca         1 Q2D      -0.338500
     22 C24         -7.2630    -0.2170     1.2070 ca         1 Q2D      -0.007000
     23 C5           3.6370     1.7100    -0.1450 ca         1 Q2D      -0.111000
     24 C6           3.9620     2.6560    -1.1300 ca         1 Q2D      -0.044000
     25 C8           6.2470     2.5270    -0.3850 ca         1 Q2D       0.079100
     26 F           -9.7390     1.6750    -0.0160 f          1 Q2D      -0.265900
     27 N1           0.7890    -3.6130    -0.9110 nb         1 Q2D      -0.222000
     28 N2           1.0780    -1.2990    -0.2570 na         1 Q2D      -0.256300
     29 N3           2.8430    -0.7830    -1.5340 nd         1 Q2D      -0.538100
     30 N4           4.0710    -2.9270    -3.3410 nv         1 Q2D      -1.063900
     31 N5          -3.7690    -0.7300     0.4500 n3         1 Q2D      -0.720600
     32 O1           7.4360     3.0830    -0.6810 os         1 Q2D      -0.337100
     33 O2         -11.1130    -0.1310     0.8290 o          1 Q2D      -0.540000
     34 O3          -9.6270     1.1970     2.3520 o          1 Q2D      -0.540000
     35 S            1.9330     1.2710     0.0030 ss         1 Q2D       0.007800
     36 S1          -9.8660     0.5310     1.1000 sy         1 Q2D       1.340400
     37 H9           6.7300     1.2030     1.2280 ha         1 Q2D       0.150000
     38 H111         7.7040     3.3600    -2.7140 h2         1 Q2D       0.070700
     39 H112         7.6520     4.8560    -1.7190 h2         1 Q2D       0.070700
     40 H121         0.2000    -0.3430     1.3560 h1         1 Q2D       0.072200
     41 H122        -0.0340    -2.0790     1.2890 h1         1 Q2D       0.072200
     42 H13         -1.5650    -1.8550    -0.6270 hc         1 Q2D       0.084700
     43 H142        -1.1210     1.1460    -0.3110 hc         1 Q2D       0.047200
     44 H141        -0.6830     0.1800    -1.7130 hc         1 Q2D       0.047200
     45 H            0.9340    -5.4810    -1.7360 h5         1 Q2D       0.046100
     46 H151        -2.8590     1.3920    -2.0260 hc         1 Q2D       0.050700
     47 H152        -3.0370    -0.3500    -2.1570 hc         1 Q2D       0.050700
     48 H162        -3.6920     1.3780     0.2770 h1         1 Q2D       0.035200
     49 H161        -4.8390     0.5630    -0.7830 h1         1 Q2D       0.035200
     50 H172        -2.4640    -1.8190     1.6410 h1         1 Q2D       0.033200
     51 H171        -2.2300    -0.0740     1.7550 h1         1 Q2D       0.033200
     52 H181        -4.8380     0.1350     2.0730 h1         1 Q2D       0.044200
     53 H182        -4.6190    -1.6070     2.1230 h1         1 Q2D       0.044200
     54 H20         -5.5050    -2.5700    -0.4490 ha         1 Q2D       0.137000
     55 H21         -7.7230    -2.9990    -1.4340 ha         1 Q2D       0.124000
     56 H22         -9.6700    -1.6460    -0.7500 ha         1 Q2D       0.140000
     57 H24         -7.1360     0.5640     1.9460 ha         1 Q2D       0.137000
     58 H6           3.2020     3.0530    -1.7890 ha         1 Q2D       0.150000
     59 HN42         4.5220    -2.0320    -3.4110 hn         1 Q2D       0.507000
     60 HN41         4.3910    -3.6710    -3.9370 hn         1 Q2D       0.507000
     61 C12         -0.0190    -1.1730     0.6810 c3         1 Q2D       0.084600
     62 C18         -4.8180    -0.7710     1.4450 c3         1 Q2D       0.212100
     63 I            4.1670    -0.2220     2.1700 i          1 Q2D      -0.275000
@<TRIPOS>BOND
     1     1     2 ar  
     2     1    27 ar  
     3     1    28 1   
     4     2     3 ar  
     5     2    29 1   
     6     3    11 ar  
     7     3    30 1   
     8     4    28 1   
     9     4    29 2   
    10     4    35 1   
    11     5    13 1   
    12     5    24 ar  
    13     5    25 ar  
    14     6     7 ar  
    15     6    25 ar  
    16     6    37 1   
    17     7    23 ar  
    18     7    63 1   
    19     8    13 1   
    20     8    32 1   
    21     8    38 1   
    22     8    39 1   
    23     9    10 1   
    24     9    16 1   
    25     9    42 1   
    26     9    61 1   
    27    10    14 1   
    28    10    43 1   
    29    10    44 1   
    30    11    12 ar  
    31    12    27 ar  
    32    12    45 1   
    33    14    15 1   
    34    14    46 1   
    35    14    47 1   
    36    15    31 1   
    37    15    48 1   
    38    15    49 1   
    39    16    31 1   
    40    16    50 1   
    41    16    51 1   
    42    17    18 ar  
    43    17    22 ar  
    44    17    62 1   
    45    18    19 ar  
    46    18    54 1   
    47    19    20 ar  
    48    19    55 1   
    49    20    21 ar  
    50    20    56 1   
    51    21    22 ar  
    52    21    36 1   
    53    22    57 1   
    54    23    24 ar  
    55    23    35 1   
    56    24    58 1   
    57    25    32 1   
    58    26    36 1   
    59    28    61 1   
    60    30    59 1   
    61    30    60 1   
    62    31    62 1   
    63    33    36 2   
    64    34    36 2   
    65    40    61 1   
    66    41    61 1   
    67    52    62 1   
    68    53    62 1   
@<TRIPOS>SUBSTRUCTURE
     1 Q2D         1 TEMP              0 ****  ****    0 ROOT
