@<TRIPOS>MOLECULE
Q2E
   30    31     1     0     0
SMALL
No Charge or Current Charge


@<TRIPOS>ATOM
      1 C1          -3.7270   -35.9090    -2.8940 cc         1 Q2E       0.040500
      2 C2          -3.7400   -35.7120    -5.1360 ca         1 Q2E      -0.031200
      3 C3          -3.3920   -35.5240    -6.4790 ca         1 Q2E      -0.132000
      4 C4          -4.4190   -35.6080    -7.4450 ca         1 Q2E      -0.085000
      5 C5          -5.7530   -35.8790    -7.0530 ca         1 Q2E      -0.144000
      6 C6          -6.0760   -36.0670    -5.6910 ca         1 Q2E      -0.059000
      7 C7          -5.0370   -35.9710    -4.7550 ca         1 Q2E      -0.108800
      8 C8          -5.0340   -36.1200    -3.3110 cd         1 Q2E      -0.071400
      9 C9          -8.5790   -35.9280    -1.6540 c          1 Q2E       0.531900
     10 N1          -6.6580   -34.1780    -1.5540 n8         1 Q2E      -0.983200
     11 CA          -7.2620   -35.3590    -2.2780 c3         1 Q2E       0.050500
     12 O           -9.0560   -35.5450    -0.5880 o          1 Q2E      -0.518100
     13 CB          -6.2270   -36.5030    -2.4620 c3         1 Q2E       0.006800
     14 S           -3.1320   -36.2070    -1.2640 ss         1 Q2E      -0.273600
     15 C           -1.6110   -37.2060    -1.5830 c3         1 Q2E       0.013900
     16 N           -2.9220   -35.6950    -4.0180 na         1 Q2E      -0.211700
     17 H1          -2.3650   -35.3220    -6.7720 ha         1 Q2E       0.114000
     18 H2          -4.1830   -35.4660    -8.4980 ha         1 Q2E       0.111000
     19 H3          -6.5350   -35.9440    -7.8060 ha         1 Q2E       0.111000
     20 H4          -7.0970   -36.2810    -5.3840 ha         1 Q2E       0.109000
     21 H6          -7.3770   -33.4560    -1.4200 hn         1 Q2E       0.407000
     22 H7          -6.4270   -34.4540    -0.5920 hn         1 Q2E       0.407000
     23 H9          -7.5500   -35.0180    -3.2830 h1         1 Q2E       0.081700
     24 H10         -6.7280   -37.3570    -2.9350 hc         1 Q2E       0.053200
     25 H11         -5.9070   -36.8600    -1.4760 hc         1 Q2E       0.053200
     26 H12         -1.1660   -37.5120    -0.6280 h1         1 Q2E       0.062700
     27 H13         -1.8700   -38.1010    -2.1630 h1         1 Q2E       0.062700
     28 H14         -0.8790   -36.6090    -2.1420 h1         1 Q2E       0.062700
     29 H15         -1.9180   -35.5630    -4.0180 hn         1 Q2E       0.355000
     30 H5          -9.0810   -36.7230    -2.2490 h4         1 Q2E      -0.015800
@<TRIPOS>BOND
     1     1     8 2   
     2     1    14 1   
     3     1    16 1   
     4     2     3 ar  
     5     2     7 ar  
     6     2    16 1   
     7     3     4 ar  
     8     3    17 1   
     9     4     5 ar  
    10     4    18 1   
    11     5     6 ar  
    12     5    19 1   
    13     6     7 ar  
    14     6    20 1   
    15     7     8 1   
    16     8    13 1   
    17     9    11 1   
    18     9    12 2   
    19     9    30 1   
    20    10    11 1   
    21    10    21 1   
    22    10    22 1   
    23    11    13 1   
    24    11    23 1   
    25    13    24 1   
    26    13    25 1   
    27    14    15 1   
    28    15    26 1   
    29    15    27 1   
    30    15    28 1   
    31    16    29 1   
@<TRIPOS>SUBSTRUCTURE
     1 Q2E         1 TEMP              0 ****  ****    0 ROOT
