@<TRIPOS>MOLECULE
Q2F
   73    77     1     0     0
SMALL
No Charge or Current Charge


@<TRIPOS>ATOM
      1 N1         -14.3340     5.3170    -7.9610 ns         1 Q2F      -0.473500
      2 N3         -11.7200     2.5340    -9.2960 nc         1 Q2F      -0.706000
      3 C4         -12.3640     4.6780    -9.0610 cd         1 Q2F      -0.353600
      4 C5         -10.8170     3.3090    -9.8920 cd         1 Q2F       0.448400
      5 C7          -9.5120     6.4510    -9.2340 c3         1 Q2F      -0.112100
      6 C8         -14.1090     1.6100    -7.7920 c3         1 Q2F       0.119000
      7 C10        -14.1240    -0.3660    -6.1620 c6         1 Q2F      -0.068900
      8 C13        -11.6860     0.6670    -4.7960 c6         1 Q2F      -0.072400
      9 C15        -11.7100    -1.3040    -3.1640 c3         1 Q2F       0.198800
     10 C17         -8.9100    -3.1470    -1.6640 ca         1 Q2F       0.019000
     11 C20         -8.7870    -1.0000     0.1480 ca         1 Q2F       0.119000
     12 C21        -10.0260    -1.5880    -0.1570 ca         1 Q2F      -0.037000
     13 C22         -5.1910    -1.0500    -0.8690 c6         1 Q2F       0.176300
     14 C24         -3.9300    -0.4620    -3.0000 c6         1 Q2F       0.155600
     15 C26         -4.0050    -0.4460    -0.0810 c6         1 Q2F      -0.131400
     16 C1         -13.2400     5.7670    -8.6280 c          1 Q2F       0.638600
     17 C11        -13.7020    -0.8920    -4.7680 c6         1 Q2F      -0.072400
     18 C12        -12.1610    -0.7940    -4.5630 c6         1 Q2F      -0.062700
     19 C14        -12.1090     1.1920    -6.1890 c6         1 Q2F      -0.068900
     20 C16        -10.0910    -2.6640    -1.0670 ca         1 Q2F      -0.332500
     21 C18         -7.6710    -2.5560    -1.3580 ca         1 Q2F      -0.210000
     22 C19         -7.6000    -1.4700    -0.4540 ca         1 Q2F       0.168100
     23 C2         -14.6740     4.0310    -7.6610 c          1 Q2F       0.623000
     24 C23         -5.2890    -0.3850    -2.2680 c6         1 Q2F      -0.131400
     25 C25         -2.7050    -0.5230    -0.9140 c6         1 Q2F       0.155600
     26 C3         -12.6510     3.3860    -8.7880 cc         1 Q2F       0.435900
     27 C9         -13.6470     1.0930    -6.3950 c6         1 Q2F      -0.082700
     28 N2         -13.7800     3.0300    -8.0770 n          1 Q2F      -0.360300
     29 N4         -11.1720     4.6490    -9.7710 na         1 Q2F      -0.114500
     30 N5         -11.9750    -2.7410    -2.9820 n7         1 Q2F      -0.850300
     31 O1         -13.0430     6.9520    -8.8350 o          1 Q2F      -0.538000
     32 O2         -15.7060     3.7950    -7.0550 o          1 Q2F      -0.555000
     33 O5          -6.4050    -0.8540    -0.1140 os         1 Q2F      -0.325100
     34 O6          -2.9010     0.1350    -2.1830 os         1 Q2F      -0.442000
     35 S1         -11.6710    -3.4140    -1.4870 sy         1 Q2F       1.147600
     36 H1         -14.9780     6.0250    -7.6480 hn         1 Q2F       0.344500
     37 H2          -9.9200     2.9900   -10.4080 h5         1 Q2F       0.063100
     38 H3         -11.1250     6.5410   -10.6820 h1         1 Q2F       0.069200
     39 H4          -9.7990     5.4600   -11.1390 h1         1 Q2F       0.069200
     40 H5          -8.9690     7.3000    -9.6660 hc         1 Q2F       0.054700
     41 H6         -10.1080     6.8170    -8.3900 hc         1 Q2F       0.054700
     42 H7          -8.7780     5.7300    -8.8540 hc         1 Q2F       0.054700
     43 H8         -15.1950     1.4710    -7.8750 h1         1 Q2F       0.072700
     44 H9         -13.6590     0.9730    -8.5650 h1         1 Q2F       0.072700
     45 H10        -15.2180    -0.4220    -6.2550 hc         1 Q2F       0.046450
     46 H11        -13.7130    -1.0230    -6.9410 hc         1 Q2F       0.046450
     47 H12        -10.5930     0.7250    -4.7020 hc         1 Q2F       0.039950
     48 H13        -12.1000     1.3230    -4.0170 hc         1 Q2F       0.039950
     49 H14        -10.6340    -1.1030    -3.0710 h1         1 Q2F       0.048200
     50 H15        -12.2240    -0.7110    -2.3950 h1         1 Q2F       0.048200
     51 H16         -8.9490    -3.9760    -2.3710 ha         1 Q2F       0.142000
     52 H17        -10.9270    -1.2000     0.3150 ha         1 Q2F       0.148000
     53 H18         -5.0010    -2.1280    -0.9780 h1         1 Q2F       0.047700
     54 H19         -3.6670    -1.5090    -3.2120 h1         1 Q2F       0.049200
     55 H20         -3.9860     0.0770    -3.9560 h1         1 Q2F       0.049200
     56 H21         -4.2160     0.6010     0.1730 hc         1 Q2F       0.067950
     57 H22         -3.8710    -0.9830     0.8670 hc         1 Q2F       0.067950
     58 H23        -14.2200    -0.3190    -3.9860 hc         1 Q2F       0.039950
     59 H24        -14.0370    -1.9330    -4.6650 hc         1 Q2F       0.039950
     60 H25        -11.6640    -1.4400    -5.3010 hc         1 Q2F       0.070700
     61 H26        -11.5890     0.6220    -6.9710 hc         1 Q2F       0.046450
     62 H27        -11.7790     2.2350    -6.2910 hc         1 Q2F       0.046450
     63 H28         -6.7830    -2.9610    -1.8320 ha         1 Q2F       0.126000
     64 H29         -5.5870     0.6670    -2.1610 hc         1 Q2F       0.067950
     65 H30         -6.0600    -0.8700    -2.8790 hc         1 Q2F       0.067950
     66 H31         -2.4190    -1.5710    -1.0850 h1         1 Q2F       0.049200
     67 H32         -1.8840    -0.0270    -0.3760 h1         1 Q2F       0.049200
     68 H33        -14.1380     1.7380    -5.6540 hc         1 Q2F       0.065700
     69 H34        -12.9760    -2.9060    -3.0570 hn         1 Q2F       0.477000
     70 C6         -10.4160     5.7970   -10.2960 c3         1 Q2F       0.077600
     71 F1          -8.7460     0.0330     1.0220 f          1 Q2F      -0.162000
     72 O3         -11.4680    -4.8420    -1.7420 o          1 Q2F      -0.531000
     73 O4         -12.7230    -2.9090    -0.6030 o          1 Q2F      -0.531000
@<TRIPOS>BOND
     1     1    16 1   
     2     1    23 1   
     3     1    36 1   
     4     2     4 2   
     5     2    26 1   
     6     3    16 1   
     7     3    26 2   
     8     3    29 1   
     9     4    29 1   
    10     4    37 1   
    11     5    40 1   
    12     5    41 1   
    13     5    42 1   
    14     5    70 1   
    15     6    27 1   
    16     6    28 1   
    17     6    43 1   
    18     6    44 1   
    19     7    17 1   
    20     7    27 1   
    21     7    45 1   
    22     7    46 1   
    23     8    18 1   
    24     8    19 1   
    25     8    47 1   
    26     8    48 1   
    27     9    18 1   
    28     9    30 1   
    29     9    49 1   
    30     9    50 1   
    31    10    20 ar  
    32    10    21 ar  
    33    10    51 1   
    34    11    12 ar  
    35    11    22 ar  
    36    11    71 1   
    37    12    20 ar  
    38    12    52 1   
    39    13    15 1   
    40    13    24 1   
    41    13    33 1   
    42    13    53 1   
    43    14    24 1   
    44    14    34 1   
    45    14    54 1   
    46    14    55 1   
    47    15    25 1   
    48    15    56 1   
    49    15    57 1   
    50    16    31 2   
    51    17    18 1   
    52    17    58 1   
    53    17    59 1   
    54    18    60 1   
    55    19    27 1   
    56    19    61 1   
    57    19    62 1   
    58    20    35 1   
    59    21    22 ar  
    60    21    63 1   
    61    22    33 1   
    62    23    28 1   
    63    23    32 2   
    64    24    64 1   
    65    24    65 1   
    66    25    34 1   
    67    25    66 1   
    68    25    67 1   
    69    26    28 1   
    70    27    68 1   
    71    29    70 1   
    72    30    35 1   
    73    30    69 1   
    74    35    72 2   
    75    35    73 2   
    76    38    70 1   
    77    39    70 1   
@<TRIPOS>SUBSTRUCTURE
     1 Q2F         1 TEMP              0 ****  ****    0 ROOT
