@<TRIPOS>MOLECULE
Q2F
   73    77     1     0     0
SMALL
abcg2


@<TRIPOS>ATOM
      1 N1         -12.4930     5.8330    -7.4460 ns         1 Q2F      -0.473500
      2 N3         -13.3630     2.6040    -9.6030 nc         1 Q2F      -0.706000
      3 C4         -12.4730     4.6570    -9.4320 cd         1 Q2F      -0.353600
      4 C5         -12.8840     3.0030   -10.7680 cd         1 Q2F       0.448400
      5 C7         -10.1750     4.8700   -11.7270 c3         1 Q2F      -0.112100
      6 C8         -14.1070     2.5860    -6.7710 c3         1 Q2F       0.119000
      7 C10        -14.0010     0.6490    -5.2130 c6         1 Q2F      -0.068900
      8 C13        -11.1810     0.2040    -5.8250 c6         1 Q2F      -0.072400
      9 C15        -11.0490    -1.6920    -4.2280 c3         1 Q2F       0.198800
     10 C17         -8.3270    -3.0800    -2.3860 ca         1 Q2F       0.019000
     11 C20         -9.0450    -2.1970     0.1190 ca         1 Q2F       0.119000
     12 C21         -9.9810    -2.8410    -0.6460 ca         1 Q2F      -0.037000
     13 C22         -5.6300    -0.9180     0.1210 c6         1 Q2F       0.176300
     14 C24         -4.3090     0.8490    -1.0180 c6         1 Q2F       0.155600
     15 C26         -4.8250    -0.6190     1.3720 c6         1 Q2F      -0.131400
     16 C1         -12.1180     5.8750    -8.7830 c          1 Q2F       0.638600
     17 C11        -13.1330    -0.2360    -4.3240 c6         1 Q2F      -0.072400
     18 C12        -11.9890    -0.8770    -5.1080 c6         1 Q2F      -0.062700
     19 C14        -12.0520     1.0850    -6.7120 c6         1 Q2F      -0.068900
     20 C16         -9.6100    -3.2860    -1.9140 ca         1 Q2F      -0.332500
     21 C18         -7.3920    -2.4290    -1.5920 ca         1 Q2F      -0.210000
     22 C19         -7.7320    -1.9770    -0.3210 ca         1 Q2F       0.168100
     23 C2         -13.1320     4.8300    -6.7390 c          1 Q2F       0.623000
     24 C23         -5.7150     0.3290    -0.7480 c6         1 Q2F      -0.131400
     25 C25         -3.4710    -0.0450     0.9730 c6         1 Q2F       0.155600
     26 C3         -13.1080     3.6300    -8.7740 cc         1 Q2F       0.435900
     27 C9         -13.1810     1.7300    -5.9130 c6         1 Q2F      -0.082700
     28 N2         -13.4370     3.6950    -7.4450 n          1 Q2F      -0.360300
     29 N4         -12.3440     4.2250   -10.7320 na         1 Q2F      -0.114500
     30 N5         -11.7450    -2.7820    -3.5420 n7         1 Q2F      -0.850300
     31 O1         -11.5690     6.8510    -9.2610 o          1 Q2F      -0.538000
     32 O2         -13.4010     4.9690    -5.5620 o          1 Q2F      -0.555000
     33 O5          -6.9230    -1.3600     0.5400 os         1 Q2F      -0.325100
     34 O6          -3.6030     1.1080     0.1730 os         1 Q2F      -0.442000
     35 S1         -10.8380    -4.0250    -2.9480 sy         1 Q2F       1.147600
     36 H1         -12.2820     6.6590    -6.8990 hn         1 Q2F       0.344500
     37 H2         -12.9140     2.4230   -11.6780 h5         1 Q2F       0.063100
     38 H3         -12.0520     5.9350   -11.8690 h1         1 Q2F       0.069200
     39 H4         -12.0210     4.4190   -12.7500 h1         1 Q2F       0.069200
     40 H5          -9.7360     5.3670   -12.5920 hc         1 Q2F       0.054700
     41 H6          -9.8260     5.3830   -10.8330 hc         1 Q2F       0.054700
     42 H7          -9.8120     3.8430   -11.7060 hc         1 Q2F       0.054700
     43 H8         -14.9130     2.9950    -6.1620 h1         1 Q2F       0.072700
     44 H9         -14.5660     1.9740    -7.5470 h1         1 Q2F       0.072700
     45 H10        -14.7940     1.1040    -4.6140 hc         1 Q2F       0.046450
     46 H11        -14.4980     0.0280    -5.9680 hc         1 Q2F       0.046450
     47 H12        -10.3900    -0.2550    -6.4240 hc         1 Q2F       0.039950
     48 H13        -10.6810     0.8300    -5.0770 hc         1 Q2F       0.039950
     49 H14        -10.2700    -2.1260    -4.8560 h1         1 Q2F       0.048200
     50 H15        -10.5550    -1.0280    -3.5080 h1         1 Q2F       0.048200
     51 H16         -8.0350    -3.4200    -3.3700 ha         1 Q2F       0.142000
     52 H17        -10.9800    -2.9870    -0.2550 ha         1 Q2F       0.148000
     53 H18         -5.1260    -1.7220    -0.4300 h1         1 Q2F       0.047700
     54 H19         -3.7630     0.1220    -1.6390 h1         1 Q2F       0.049200
     55 H20         -4.3540     1.7850    -1.5760 h1         1 Q2F       0.049200
     56 H21         -5.3630     0.1010     1.9960 hc         1 Q2F       0.067950
     57 H22         -4.6740    -1.5260     1.9620 hc         1 Q2F       0.067950
     58 H23        -12.7170     0.3650    -3.5070 hc         1 Q2F       0.039950
     59 H24        -13.7650    -1.0000    -3.8610 hc         1 Q2F       0.039950
     60 H25        -12.4200    -1.5480    -5.8610 hc         1 Q2F       0.070700
     61 H26        -12.4790     0.4830    -7.5220 hc         1 Q2F       0.046450
     62 H27        -11.4280     1.8480    -7.1840 hc         1 Q2F       0.046450
     63 H28         -6.3960    -2.2840    -1.9870 ha         1 Q2F       0.126000
     64 H29         -6.3020     1.0910    -0.2290 hc         1 Q2F       0.067950
     65 H30         -6.2060     0.1280    -1.7020 hc         1 Q2F       0.067950
     66 H31         -2.8860    -0.8140     0.4480 h1         1 Q2F       0.049200
     67 H32         -2.9080     0.2420     1.8610 h1         1 Q2F       0.049200
     68 H33        -12.7350     2.3670    -5.1410 hc         1 Q2F       0.065700
     69 H34        -12.4050    -2.4580    -2.8400 hn         1 Q2F       0.477000
     70 C6         -11.6880     4.9100   -11.8370 c3         1 Q2F       0.077600
     71 F1          -9.3780    -1.7560     1.3370 f          1 Q2F      -0.162000
     72 O3         -10.1570    -4.6450    -4.0720 o          1 Q2F      -0.531000
     73 O4         -11.7260    -4.8210    -2.1150 o          1 Q2F      -0.531000
@<TRIPOS>BOND
     1     1    16 1   
     2     1    23 1   
     3     1    36 1   
     4     2     4 2   
     5     2    26 1   
     6     3    16 1   
     7     3    26 2   
     8     3    29 1   
     9     4    29 1   
    10     4    37 1   
    11     5    40 1   
    12     5    41 1   
    13     5    42 1   
    14     5    70 1   
    15     6    27 1   
    16     6    28 1   
    17     6    43 1   
    18     6    44 1   
    19     7    17 1   
    20     7    27 1   
    21     7    45 1   
    22     7    46 1   
    23     8    18 1   
    24     8    19 1   
    25     8    47 1   
    26     8    48 1   
    27     9    18 1   
    28     9    30 1   
    29     9    49 1   
    30     9    50 1   
    31    10    20 ar  
    32    10    21 ar  
    33    10    51 1   
    34    11    12 ar  
    35    11    22 ar  
    36    11    71 1   
    37    12    20 ar  
    38    12    52 1   
    39    13    15 1   
    40    13    24 1   
    41    13    33 1   
    42    13    53 1   
    43    14    24 1   
    44    14    34 1   
    45    14    54 1   
    46    14    55 1   
    47    15    25 1   
    48    15    56 1   
    49    15    57 1   
    50    16    31 2   
    51    17    18 1   
    52    17    58 1   
    53    17    59 1   
    54    18    60 1   
    55    19    27 1   
    56    19    61 1   
    57    19    62 1   
    58    20    35 1   
    59    21    22 ar  
    60    21    63 1   
    61    22    33 1   
    62    23    28 1   
    63    23    32 2   
    64    24    64 1   
    65    24    65 1   
    66    25    34 1   
    67    25    66 1   
    68    25    67 1   
    69    26    28 1   
    70    27    68 1   
    71    29    70 1   
    72    30    35 1   
    73    30    69 1   
    74    35    72 2   
    75    35    73 2   
    76    38    70 1   
    77    39    70 1   
@<TRIPOS>SUBSTRUCTURE
     1 Q2F         1 TEMP              0 ****  ****    0 ROOT
