@<TRIPOS>MOLECULE
Q2G
   30    31     1     0     0
SMALL
No Charge or Current Charge


@<TRIPOS>ATOM
      1 N1           7.7040     0.2870    20.6410 ns         1 Q2G      -0.165000
      2 C4           7.1010     0.0890    18.2170 ca         1 Q2G       0.331900
      3 C5           6.7660     0.3740    19.5670 ca         1 Q2G      -0.067000
      4 C6           9.0490    -0.0540    20.6750 c          1 Q2G       0.667100
      5 C7          10.8520    -0.2550    22.4950 ca         1 Q2G       0.003000
      6 C8          11.0260    -0.1010    23.8840 ca         1 Q2G      -0.172000
      7 C10         13.3670    -0.7290    23.6960 ca         1 Q2G      -0.131000
      8 C11         13.2050    -0.8870    22.3110 ca         1 Q2G       0.153000
      9 C9          12.2750    -0.3350    24.4850 ca         1 Q2G      -0.071000
     10 C12         11.9570    -0.6520    21.7100 ca         1 Q2G      -0.129000
     11 N2           9.5570     0.0010    21.9650 ns         1 Q2G      -0.163000
     12 O            9.7020    -0.3640    19.6870 o          1 Q2G      -0.597100
     13 C1           5.4370     0.7600    19.8550 ca         1 Q2G      -0.089300
     14 C            4.9820     1.0850    21.2750 c3         1 Q2G      -0.052800
     15 N            6.2150     0.1700    17.1940 nb         1 Q2G      -0.643000
     16 C3           4.9490     0.5400    17.4850 ca         1 Q2G       0.315900
     17 C2           4.5230     0.8410    18.7880 ca         1 Q2G      -0.142000
     18 H1           7.3120     0.5190    21.5430 hn         1 Q2G       0.147000
     19 H2           8.1030    -0.2130    17.9240 h4         1 Q2G       0.048100
     20 H3          10.1870     0.2040    24.5070 ha         1 Q2G       0.111000
     21 H4          14.3350    -0.9120    24.1540 ha         1 Q2G       0.133000
     22 H5          12.3960    -0.2120    25.5590 ha         1 Q2G       0.119000
     23 H6          11.8760    -0.7860    20.6370 ha         1 Q2G       0.168000
     24 H7           8.8810     0.2760    22.6650 hn         1 Q2G       0.147000
     25 H8           5.1130     0.2230    21.9400 hc         1 Q2G       0.046033
     26 H9           5.5550     1.9240    21.6910 hc         1 Q2G       0.046033
     27 H10          3.9230     1.3650    21.3080 hc         1 Q2G       0.046033
     28 H11          4.2550     0.5980    16.6470 h4         1 Q2G       0.023100
     29 H12          3.4910     1.1330    18.9570 ha         1 Q2G       0.122000
     30 Cl          14.5730    -1.3810    21.3230 cl         1 Q2G      -0.207000
@<TRIPOS>BOND
     1     1     3 1   
     2     1     4 1   
     3     1    18 1   
     4     2     3 ar  
     5     2    15 ar  
     6     2    19 1   
     7     3    13 ar  
     8     4    11 1   
     9     4    12 2   
    10     5     6 ar  
    11     5    10 ar  
    12     5    11 1   
    13     6     9 ar  
    14     6    20 1   
    15     7     8 ar  
    16     7     9 ar  
    17     7    21 1   
    18     8    10 ar  
    19     8    30 1   
    20     9    22 1   
    21    10    23 1   
    22    11    24 1   
    23    13    14 1   
    24    13    17 ar  
    25    14    25 1   
    26    14    26 1   
    27    14    27 1   
    28    15    16 ar  
    29    16    17 ar  
    30    16    28 1   
    31    17    29 1   
@<TRIPOS>SUBSTRUCTURE
     1 Q2G         1 TEMP              0 ****  ****    0 ROOT
