@<TRIPOS>MOLECULE
Q2G
   30    31     1     0     0
SMALL
abcg2


@<TRIPOS>ATOM
      1 N1           7.5450    -0.0170    20.8240 ns         1 Q2G      -0.165000
      2 C4           7.0860    -0.3130    18.4320 ca         1 Q2G       0.331900
      3 C5           6.7370     0.1770    19.6940 ca         1 Q2G      -0.067000
      4 C6           8.9210    -0.0940    20.8440 c          1 Q2G       0.667100
      5 C7          10.7520    -0.3400    22.5250 ca         1 Q2G       0.003000
      6 C8          10.9970    -0.3670    23.9050 ca         1 Q2G      -0.172000
      7 C10         13.3730    -0.5670    23.5170 ca         1 Q2G      -0.131000
      8 C11         13.1110    -0.5400    22.1560 ca         1 Q2G       0.153000
      9 C9          12.2900    -0.4800    24.3870 ca         1 Q2G      -0.071000
     10 C12         11.8290    -0.4300    21.6370 ca         1 Q2G      -0.129000
     11 N2           9.4180    -0.2330    22.1190 ns         1 Q2G      -0.163000
     12 O            9.6170    -0.0430    19.8390 o          1 Q2G      -0.597100
     13 C1           5.5140     0.8510    19.8430 ca         1 Q2G      -0.089300
     14 C            5.0710     1.3910    21.1710 c3         1 Q2G      -0.052800
     15 N            6.3250    -0.1530    17.3480 nb         1 Q2G      -0.643000
     16 C3           5.1670     0.4960    17.4870 ca         1 Q2G       0.315900
     17 C2           4.7300     0.9980    18.7050 ca         1 Q2G      -0.142000
     18 H1           7.0770     0.0580    21.7130 hn         1 Q2G       0.147000
     19 H2           8.0140    -0.8500    18.3040 h4         1 Q2G       0.048100
     20 H3          10.1640    -0.2980    24.5940 ha         1 Q2G       0.111000
     21 H4          14.3850    -0.6530    23.8860 ha         1 Q2G       0.133000
     22 H5          12.4610    -0.5000    25.4550 ha         1 Q2G       0.119000
     23 H6          11.6650    -0.4150    20.5740 ha         1 Q2G       0.168000
     24 H7           8.7500    -0.2360    22.8760 hn         1 Q2G       0.147000
     25 H8           4.9040     0.5860    21.8930 hc         1 Q2G       0.046033
     26 H9           5.8270     2.0560    21.5970 hc         1 Q2G       0.046033
     27 H10          4.1410     1.9460    21.0670 hc         1 Q2G       0.046033
     28 H11          4.5620     0.6150    16.5950 h4         1 Q2G       0.023100
     29 H12          3.7800     1.5130    18.7680 ha         1 Q2G       0.122000
     30 CL          14.4520    -0.6510    21.0300 cl         1 Q2G      -0.207000
@<TRIPOS>BOND
     1     1     3 1   
     2     1     4 1   
     3     1    18 1   
     4     2     3 ar  
     5     2    15 ar  
     6     2    19 1   
     7     3    13 ar  
     8     4    11 1   
     9     4    12 2   
    10     5     6 ar  
    11     5    10 ar  
    12     5    11 1   
    13     6     9 ar  
    14     6    20 1   
    15     7     8 ar  
    16     7     9 ar  
    17     7    21 1   
    18     8    10 ar  
    19     8    30 1   
    20     9    22 1   
    21    10    23 1   
    22    11    24 1   
    23    13    14 1   
    24    13    17 ar  
    25    14    25 1   
    26    14    26 1   
    27    14    27 1   
    28    15    16 ar  
    29    16    17 ar  
    30    16    28 1   
    31    17    29 1   
@<TRIPOS>SUBSTRUCTURE
     1 Q2G         1 TEMP              0 ****  ****    0 ROOT
