@<TRIPOS>MOLECULE
Q2I
   17    17     1     0     0
SMALL
No Charge or Current Charge


@<TRIPOS>ATOM
      1 C1          39.3400    12.6850    26.1610 cc         1 Q2I       0.241900
      2 C2          40.2900    12.5990    27.1850 cc         1 Q2I      -0.207000
      3 C3          39.6090    12.3630    28.3420 cd         1 Q2I      -0.140300
      4 C4          40.1040    12.1950    29.7590 c3         1 Q2I       0.214100
      5 N           38.2620    12.3280    27.9450 na         1 Q2I       0.114800
      6 C           37.0940    12.1140    28.8160 c3         1 Q2I       0.072900
      7 N1          38.0990    12.5270    26.5770 nd         1 Q2I      -0.524800
      8 N2          41.4220    11.5350    29.7760 n8         1 Q2I      -0.988200
      9 H1          39.5220    12.8640    25.1100 h4         1 Q2I       0.036100
     10 H2          41.3620    12.7050    27.0580 ha         1 Q2I       0.146000
     11 H3          40.1860    13.1800    30.2400 h1         1 Q2I       0.042700
     12 H4          39.3940    11.5840    30.3350 h1         1 Q2I       0.042700
     13 H5          36.1680    12.2500    28.2450 h1         1 Q2I       0.054033
     14 H6          37.1230    11.0950    29.2200 h1         1 Q2I       0.054033
     15 H7          37.1170    12.8340    29.6420 h1         1 Q2I       0.054033
     16 H8          41.6870    11.3480    30.7500 hn         1 Q2I       0.394000
     17 H9          41.3220    10.6000    29.3650 hn         1 Q2I       0.394000
@<TRIPOS>BOND
     1     1     2 1   
     2     1     7 2   
     3     1     9 1   
     4     2     3 2   
     5     2    10 1   
     6     3     4 1   
     7     3     5 1   
     8     4     8 1   
     9     4    11 1   
    10     4    12 1   
    11     5     6 1   
    12     5     7 1   
    13     6    13 1   
    14     6    14 1   
    15     6    15 1   
    16     8    16 1   
    17     8    17 1   
@<TRIPOS>SUBSTRUCTURE
     1 Q2I         1 TEMP              0 ****  ****    0 ROOT
