@<TRIPOS>MOLECULE
Q2I
   17    17     1     0     0
SMALL
abcg2


@<TRIPOS>ATOM
      1 C1          39.2990    12.8770    26.1240 cc         1 Q2I       0.241900
      2 C2          40.3020    12.9710    27.1010 cc         1 Q2I      -0.207000
      3 C3          39.7020    12.5480    28.2760 cd         1 Q2I      -0.140300
      4 C4          40.2590    12.3970    29.6530 c3         1 Q2I       0.214100
      5 N           38.4210    12.2330    27.9560 na         1 Q2I       0.114800
      6 C           37.3680    11.7770    28.8470 c3         1 Q2I       0.072900
      7 N1          38.1560    12.4300    26.6450 nd         1 Q2I      -0.524800
      8 N2          40.8070    11.0440    29.8710 n8         1 Q2I      -0.988200
      9 H1          39.3540    13.1130    25.0730 h4         1 Q2I       0.036100
     10 H2          41.3220    13.2980    26.9830 ha         1 Q2I       0.146000
     11 H3          41.0770    13.1090    29.7670 h1         1 Q2I       0.042700
     12 H4          39.4910    12.6710    30.3870 h1         1 Q2I       0.042700
     13 H5          36.4950    11.5600    28.2390 h1         1 Q2I       0.054033
     14 H6          37.6740    10.8730    29.3730 h1         1 Q2I       0.054033
     15 H7          37.1210    12.5500    29.5750 h1         1 Q2I       0.054033
     16 H8          41.1950    10.9950    30.8090 hn         1 Q2I       0.394000
     17 H9          40.0560    10.3600    29.8460 hn         1 Q2I       0.394000
@<TRIPOS>BOND
     1     1     2 1   
     2     1     7 2   
     3     1     9 1   
     4     2     3 2   
     5     2    10 1   
     6     3     4 1   
     7     3     5 1   
     8     4     8 1   
     9     4    11 1   
    10     4    12 1   
    11     5     6 1   
    12     5     7 1   
    13     6    13 1   
    14     6    14 1   
    15     6    15 1   
    16     8    16 1   
    17     8    17 1   
@<TRIPOS>SUBSTRUCTURE
     1 Q2I         1 TEMP              0 ****  ****    0 ROOT
