@<TRIPOS>MOLECULE
Q2J
   56    60     1     0     0
SMALL
bcc


@<TRIPOS>ATOM
      1 C8          -2.8620     0.5030    -1.7110 c3         1 Q2J       0.162800
      2 C5           2.9270    -1.4880     0.4330 ca         1 Q2J       0.013900
      3 C6          -0.5350     1.3260    -1.2650 c3         1 Q2J       0.049300
      4 N1           0.0760     3.9350     0.1800 nb         1 Q2J      -0.748000
      5 C2           1.7580     2.5420     1.2340 ca         1 Q2J      -0.224200
      6 N3           2.1670     1.2350     1.1630 nc         1 Q2J      -0.545100
      7 C4           1.3900     0.7120     0.2630 cd         1 Q2J       0.404700
      8 O2          -7.0830    -1.4080     2.7540 oh         1 Q2J      -0.575800
      9 N2           0.4900     1.5910    -0.2760 na         1 Q2J      -0.233000
     10 C7          -1.7770     0.6850    -0.6620 c3         1 Q2J      -0.102400
     11 C            0.5620     4.8860     0.9600 ca         1 Q2J       0.708900
     12 C1           0.7120     2.7810     0.3580 ca         1 Q2J       0.460800
     13 C10         -6.3360    -0.8930    -1.4640 ca         1 Q2J      -0.109300
     14 C11         -7.1510    -1.7640    -2.1850 ca         1 Q2J      -0.091000
     15 C12         -8.3140    -2.2810    -1.6320 ca         1 Q2J      -0.146000
     16 C13         -8.6840    -1.9440    -0.3380 ca         1 Q2J      -0.047000
     17 C14         -7.8610    -1.0950     0.3820 ca         1 Q2J      -0.087500
     18 C15         -6.7020    -0.5620    -0.1640 ca         1 Q2J      -0.034000
     19 C16          2.8410    -2.2660     1.6000 ca         1 Q2J      -0.061000
     20 C17          4.0110    -2.7300     2.1380 ca         1 Q2J       0.051100
     21 C18          5.2390    -2.4420     1.5620 ca         1 Q2J       0.081100
     22 C19          5.3530    -1.6820     0.4240 ca         1 Q2J      -0.107000
     23 C20          4.1630    -1.2100    -0.1410 ca         1 Q2J       0.110900
     24 C21          5.6010    -3.6410     3.4010 c5         1 Q2J       0.328200
     25 C3           2.1870     3.6350     2.0060 ca         1 Q2J       0.780200
     26 I            4.3250    -0.0370    -1.8720 i          1 Q2J      -0.134900
     27 N            1.5550     4.8040     1.8410 nb         1 Q2J      -0.828000
     28 N5          -4.0280    -0.1430    -1.1390 n7         1 Q2J      -0.808200
     29 O            4.1950    -3.4940     3.2330 os         1 Q2J      -0.314900
     30 O1           6.2210    -3.0180     2.2780 os         1 Q2J      -0.314900
     31 O3          -9.5900    -1.3150     2.3390 o          1 Q2J      -0.505200
     32 S            1.4090    -0.9520    -0.2850 ss         1 Q2J      -0.119100
     33 S1          -8.3260    -0.6020     2.0360 sx         1 Q2J       0.531500
     34 H81         -3.1670     1.4840    -2.0890 h1         1 Q2J       0.032200
     35 H82         -2.4560    -0.0480    -2.5740 h1         1 Q2J       0.032200
     36 H62         -0.7850     2.2820    -1.7260 h1         1 Q2J       0.073700
     37 H61         -0.1070     0.6990    -2.0500 h1         1 Q2J       0.073700
     38 H1          -6.8440    -0.9430     3.5700 ho         1 Q2J       0.434000
     39 HN41         3.6630     2.6810     3.0490 hn         1 Q2J       0.451800
     40 HN42         3.4360     4.3450     3.4480 hn         1 Q2J       0.451800
     41 H71         -2.1540     1.3100     0.1510 hc         1 Q2J       0.062700
     42 H72         -1.5190    -0.2860    -0.2270 hc         1 Q2J       0.062700
     43 H            0.0940     5.8610     0.8740 h5         1 Q2J       0.046100
     44 H11         -6.8740    -2.0390    -3.1950 ha         1 Q2J       0.128000
     45 H12         -8.9320    -2.9550    -2.2100 ha         1 Q2J       0.134000
     46 H13         -9.5910    -2.3410     0.0980 ha         1 Q2J       0.162000
     47 H15         -6.0720     0.1050     0.4110 ha         1 Q2J       0.147000
     48 H16          1.8810    -2.4820     2.0500 ha         1 Q2J       0.168000
     49 H19          6.3200    -1.4700    -0.0110 ha         1 Q2J       0.168000
     50 H212         5.9200    -3.1440     4.3210 h2         1 Q2J       0.070200
     51 H211         5.8620    -4.7000     3.4250 h2         1 Q2J       0.070200
     52 H91         -4.8220    -0.9030    -2.9710 h1         1 Q2J       0.037700
     53 H92         -5.3560     0.6920    -2.4850 h1         1 Q2J       0.037700
     54 HN5         -3.7600    -1.0580    -0.7940 hn         1 Q2J       0.359800
     55 N4           3.1910     3.5520     2.8810 nv         1 Q2J      -0.954500
     56 C9          -5.1040    -0.3000    -2.0950 c3         1 Q2J       0.207100
@<TRIPOS>BOND
     1     1    10 1   
     2     1    28 1   
     3     1    34 1   
     4     1    35 1   
     5     2    19 ar  
     6     2    23 ar  
     7     2    32 1   
     8     3     9 1   
     9     3    10 1   
    10     3    36 1   
    11     3    37 1   
    12     4    11 ar  
    13     4    12 ar  
    14     5     6 1   
    15     5    12 ar  
    16     5    25 ar  
    17     6     7 2   
    18     7     9 1   
    19     7    32 1   
    20     8    33 1   
    21     8    38 1   
    22     9    12 1   
    23    10    41 1   
    24    10    42 1   
    25    11    27 ar  
    26    11    43 1   
    27    13    14 ar  
    28    13    18 ar  
    29    13    56 1   
    30    14    15 ar  
    31    14    44 1   
    32    15    16 ar  
    33    15    45 1   
    34    16    17 ar  
    35    16    46 1   
    36    17    18 ar  
    37    17    33 1   
    38    18    47 1   
    39    19    20 ar  
    40    19    48 1   
    41    20    21 ar  
    42    20    29 1   
    43    21    22 ar  
    44    21    30 1   
    45    22    23 ar  
    46    22    49 1   
    47    23    26 1   
    48    24    29 1   
    49    24    30 1   
    50    24    50 1   
    51    24    51 1   
    52    25    27 ar  
    53    25    55 1   
    54    28    54 1   
    55    28    56 1   
    56    31    33 2   
    57    39    55 1   
    58    40    55 1   
    59    52    56 1   
    60    53    56 1   
@<TRIPOS>SUBSTRUCTURE
     1 Q2J         1 TEMP              0 ****  ****    0 ROOT
