@<TRIPOS>MOLECULE
Q2J
   56    60     1     0     0
SMALL
No Charge or Current Charge


@<TRIPOS>ATOM
      1 C8          -2.9110     0.5030    -1.7640 c3         1 Q2J       0.162800
      2 C5           3.1460    -1.5210     0.2150 ca         1 Q2J      -0.113000
      3 C6          -0.5260     1.2820    -1.2420 c3         1 Q2J       0.078600
      4 N1           0.1160     3.7420     0.5580 nb         1 Q2J      -0.222000
      5 C2           1.8080     2.2660     1.3660 ca         1 Q2J      -0.093600
      6 N3           2.3070     0.9730     1.1940 nc         1 Q2J      -0.545100
      7 C4           1.4940     0.5170     0.2270 cd         1 Q2J       0.404700
      8 O2          -8.8460    -0.7270     2.6700 oh         1 Q2J      -0.614800
      9 N2           0.5200     1.4230    -0.2150 na         1 Q2J      -0.262300
     10 C7          -1.8190     0.6500    -0.6890 c3         1 Q2J      -0.102400
     11 C            0.5970     4.6460     1.4430 ca         1 Q2J       0.182900
     12 C1           0.7430     2.5480     0.5370 ca         1 Q2J       0.132500
     13 C10         -6.4230    -0.9170    -1.3830 ca         1 Q2J      -0.109300
     14 C11         -6.7440    -2.2690    -1.6150 ca         1 Q2J      -0.073000
     15 C12         -7.8340    -2.8620    -0.9530 ca         1 Q2J      -0.128000
     16 C13         -8.6080    -2.1080    -0.0540 ca         1 Q2J      -0.029000
     17 C14         -8.2900    -0.7570     0.1830 ca         1 Q2J      -0.087500
     18 C15         -7.2010    -0.1640    -0.4810 ca         1 Q2J      -0.016000
     19 C16          3.1930    -2.3600     1.3520 ca         1 Q2J      -0.043000
     20 C17          4.4470    -2.6650     1.8960 ca         1 Q2J       0.051100
     21 C18          5.6030    -2.1800     1.3520 ca         1 Q2J       0.081100
     22 C19          5.5960    -1.3560     0.2220 ca         1 Q2J      -0.089000
     23 C20          4.3520    -1.0240    -0.3500 ca         1 Q2J       0.248000
     24 C21          6.1370    -3.3800     3.1320 c5         1 Q2J       0.374600
     25 C3           2.2380     3.2760     2.2520 ca         1 Q2J       0.451900
     26 I            4.3250     0.2480    -2.1140 i          1 Q2J      -0.272000
     27 N            1.6320     4.4720     2.2980 nb         1 Q2J      -0.302000
     28 N5          -4.1190    -0.0940    -1.1730 n7         1 Q2J      -0.863400
     29 O            4.6750    -3.4560     2.9760 os         1 Q2J      -0.338100
     30 O1           6.7070    -2.6040     2.0180 os         1 Q2J      -0.338100
     31 O3         -10.7470    -0.0200     0.9940 o          1 Q2J      -0.532000
     32 S            1.5510    -1.1120    -0.5010 ss         1 Q2J       0.007800
     33 S1          -9.2940     0.2410     1.3500 sx         1 Q2J       0.558300
     34 H81         -3.1390     1.4940    -2.1810 h1         1 Q2J       0.032200
     35 H82         -2.5310    -0.1270    -2.5800 h1         1 Q2J       0.032200
     36 H62         -0.7540     2.2740    -1.6550 h1         1 Q2J       0.073700
     37 H61         -0.1380     0.6670    -2.0650 h1         1 Q2J       0.073700
     38 H1          -8.4950    -0.0770     3.3140 ho         1 Q2J       0.473000
     39 HN41         3.5950     2.1430     3.2460 hn         1 Q2J       0.507000
     40 HN42         3.3440     3.7180     3.9160 hn         1 Q2J       0.507000
     41 H71         -2.1990     1.2720     0.1300 hc         1 Q2J       0.062700
     42 H72         -1.5870    -0.3360    -0.2680 hc         1 Q2J       0.062700
     43 H            0.0980     5.6140     1.4710 h5         1 Q2J       0.046100
     44 H11         -6.1500    -2.8620    -2.3080 ha         1 Q2J       0.110000
     45 H12         -8.0780    -3.9060    -1.1350 ha         1 Q2J       0.116000
     46 H13         -9.4510    -2.5680     0.4580 ha         1 Q2J       0.144000
     47 H15         -6.9550     0.8800    -0.2960 ha         1 Q2J       0.129000
     48 H16          2.2850    -2.7570     1.7990 ha         1 Q2J       0.150000
     49 H19          6.5220    -0.9830    -0.2040 ha         1 Q2J       0.150000
     50 H212         6.3710    -2.8760     4.0770 h2         1 Q2J       0.070200
     51 H211         6.5600    -4.3910     3.1310 h2         1 Q2J       0.070200
     52 H91         -4.9520    -0.8940    -2.9540 h1         1 Q2J       0.037700
     53 H92         -5.5680     0.7030    -2.5030 h1         1 Q2J       0.037700
     54 HN5         -3.8750    -1.0210    -0.8050 hn         1 Q2J       0.415000
     55 N4           3.2760     3.0990     3.1130 nv         1 Q2J      -1.064900
     56 C9          -5.2490    -0.2680    -2.1000 c3         1 Q2J       0.207100
@<TRIPOS>BOND
     1     1    10 1   
     2     1    28 1   
     3     1    34 1   
     4     1    35 1   
     5     2    19 ar  
     6     2    23 ar  
     7     2    32 1   
     8     3     9 1   
     9     3    10 1   
    10     3    36 1   
    11     3    37 1   
    12     4    11 ar  
    13     4    12 ar  
    14     5     6 1   
    15     5    12 ar  
    16     5    25 ar  
    17     6     7 2   
    18     7     9 1   
    19     7    32 1   
    20     8    33 1   
    21     8    38 1   
    22     9    12 1   
    23    10    41 1   
    24    10    42 1   
    25    11    27 ar  
    26    11    43 1   
    27    13    14 ar  
    28    13    18 ar  
    29    13    56 1   
    30    14    15 ar  
    31    14    44 1   
    32    15    16 ar  
    33    15    45 1   
    34    16    17 ar  
    35    16    46 1   
    36    17    18 ar  
    37    17    33 1   
    38    18    47 1   
    39    19    20 ar  
    40    19    48 1   
    41    20    21 ar  
    42    20    29 1   
    43    21    22 ar  
    44    21    30 1   
    45    22    23 ar  
    46    22    49 1   
    47    23    26 1   
    48    24    29 1   
    49    24    30 1   
    50    24    50 1   
    51    24    51 1   
    52    25    27 ar  
    53    25    55 1   
    54    28    54 1   
    55    28    56 1   
    56    31    33 2   
    57    39    55 1   
    58    40    55 1   
    59    52    56 1   
    60    53    56 1   
@<TRIPOS>SUBSTRUCTURE
     1 Q2J         1 TEMP              0 ****  ****    0 ROOT
