@<TRIPOS>MOLECULE
Q2K
   27    27     1     0     0
SMALL
No Charge or Current Charge


@<TRIPOS>ATOM
      1 CB1        -10.1560   -19.0880    22.8380 c3         1 Q2K      -0.094700
      2 OB2         -5.1980   -20.9940    23.1570 o          1 Q2K      -0.486100
      3 CG1        -11.4610   -19.5290    23.5290 c3         1 Q2K       0.097600
      4 SD         -12.5790   -20.3720    22.3140 ss         1 Q2K      -0.498000
      5 CE         -14.0120   -20.7670    23.4180 c3         1 Q2K       0.054900
      6 C1          -7.8620   -19.0630    24.0420 cc         1 Q2K       0.488600
      7 C2          -5.8430   -19.4840    25.0530 c          1 Q2K       0.425000
      8 C3          -8.6590   -18.6130    27.1720 c          1 Q2K       0.714000
      9 CA1         -9.1910   -18.3960    23.7950 ce         1 Q2K       0.446000
     10 CA2         -5.9970   -20.2420    23.7010 c          1 Q2K       0.615500
     11 N1          -9.5460   -17.2690    24.3480 n2         1 Q2K      -0.747100
     12 N2          -7.2590   -19.9040    23.1910 nd         1 Q2K      -0.725100
     13 N3          -7.0460   -18.7860    25.1640 n          1 Q2K      -0.316300
     14 O2          -4.9070   -19.5090    25.8490 o          1 Q2K      -0.464000
     15 O3          -9.1310   -17.9270    28.0670 o          1 Q2K      -0.706500
     16 H1          -9.7030   -19.9700    22.3730 hc         1 Q2K       0.066700
     17 H11        -10.4030   -18.4060    22.0160 hc         1 Q2K       0.066700
     18 H3         -11.9760   -18.6540    23.9500 h1         1 Q2K       0.089200
     19 H4         -11.2310   -20.2200    24.3530 h1         1 Q2K       0.089200
     20 H5         -14.7910   -21.2840    22.8440 h1         1 Q2K       0.054033
     21 H6         -13.6830   -21.4150    24.2400 h1         1 Q2K       0.054033
     22 H7         -14.4290   -19.8410    23.8350 h1         1 Q2K       0.054033
     23 HA31        -6.5840   -18.1030    27.1270 h1         1 Q2K       0.054200
     24 HA32        -7.5930   -17.0030    26.1950 h1         1 Q2K       0.054200
     25 H           -8.7320   -16.8190    24.7900 hn         1 Q2K       0.391400
     26 OXT         -9.1150   -19.6970    26.8370 o          1 Q2K      -0.706500
     27 CA3         -7.4210   -18.0620    26.4200 c3         1 Q2K      -0.071000
@<TRIPOS>BOND
     1     1     3 1   
     2     1     9 1   
     3     1    16 1   
     4     1    17 1   
     5     2    10 2   
     6     3     4 1   
     7     3    18 1   
     8     3    19 1   
     9     4     5 1   
    10     5    20 1   
    11     5    21 1   
    12     5    22 1   
    13     6     9 1   
    14     6    12 2   
    15     6    13 1   
    16     7    10 1   
    17     7    13 1   
    18     7    14 2   
    19     8    15 1   
    20     8    26 1   
    21     8    27 1   
    22     9    11 2   
    23    10    12 1   
    24    11    25 1   
    25    13    27 1   
    26    23    27 1   
    27    24    27 1   
@<TRIPOS>SUBSTRUCTURE
     1 Q2K         1 TEMP              0 ****  ****    0 ROOT
