@<TRIPOS>MOLECULE
Q2K
   27    27     1     0     0
SMALL
abcg2


@<TRIPOS>ATOM
      1 CB1        -10.3000   -18.4610    22.9530 c3         1 Q2K      -0.094700
      2 OB2         -6.2360   -21.6190    23.4070 o          1 Q2K      -0.486100
      3 CG1        -11.1530   -19.5270    23.6270 c3         1 Q2K       0.097600
      4 SD         -12.4450   -20.0420    22.4570 ss         1 Q2K      -0.498000
      5 CE         -13.3430   -21.2140    23.4960 c3         1 Q2K       0.054900
      6 C1          -8.1020   -18.9830    24.1210 cc         1 Q2K       0.488600
      7 C2          -6.3830   -19.9190    25.1410 c          1 Q2K       0.425000
      8 C3          -8.9310   -18.2610    26.9180 c          1 Q2K       0.714000
      9 CA1         -9.1230   -17.9660    23.7460 ce         1 Q2K       0.446000
     10 CA2         -6.7900   -20.6500    23.8460 c          1 Q2K       0.615500
     11 N1          -8.9520   -16.7220    23.9040 n2         1 Q2K      -0.747100
     12 N2          -7.8720   -19.9820    23.3210 nd         1 Q2K      -0.725100
     13 N3          -7.2490   -18.8550    25.1940 n          1 Q2K      -0.316300
     14 O2          -5.5300   -20.2230    25.9260 o          1 Q2K      -0.464000
     15 O3          -9.1930   -17.6280    27.9490 o          1 Q2K      -0.706500
     16 H1          -9.9120   -18.8570    22.0090 hc         1 Q2K       0.066700
     17 H11        -10.9090   -17.5900    22.7100 hc         1 Q2K       0.066700
     18 H3         -11.6230   -19.1380    24.5290 h1         1 Q2K       0.089200
     19 H4         -10.5580   -20.3970    23.9030 h1         1 Q2K       0.089200
     20 H5         -14.1780   -21.6000    22.9140 h1         1 Q2K       0.054033
     21 H6         -12.7090   -22.0490    23.7900 h1         1 Q2K       0.054033
     22 H7         -13.7350   -20.7270    24.3870 h1         1 Q2K       0.054033
     23 HA31        -6.7760   -18.4080    27.1400 h1         1 Q2K       0.054200
     24 HA32        -7.2750   -17.0170    26.2180 h1         1 Q2K       0.054200
     25 H           -8.0790   -16.4860    24.3660 hn         1 Q2K       0.391400
     26 OXT         -9.6620   -19.0230    26.2590 o          1 Q2K      -0.706500
     27 CA3         -7.4900   -18.0720    26.3870 c3         1 Q2K      -0.071000
@<TRIPOS>BOND
     1     1     3 1   
     2     1     9 1   
     3     1    16 1   
     4     1    17 1   
     5     2    10 2   
     6     3     4 1   
     7     3    18 1   
     8     3    19 1   
     9     4     5 1   
    10     5    20 1   
    11     5    21 1   
    12     5    22 1   
    13     6     9 1   
    14     6    12 2   
    15     6    13 1   
    16     7    10 1   
    17     7    13 1   
    18     7    14 2   
    19     8    15 1   
    20     8    26 1   
    21     8    27 1   
    22     9    11 2   
    23    10    12 1   
    24    11    25 1   
    25    13    27 1   
    26    23    27 1   
    27    24    27 1   
@<TRIPOS>SUBSTRUCTURE
     1 Q2K         1 TEMP              0 ****  ****    0 ROOT
