@<TRIPOS>MOLECULE
Q2L
   48    51     1     0     0
SMALL
No Charge or Current Charge


@<TRIPOS>ATOM
      1 C10        119.0090   134.4810   102.6630 c3         1 Q2L      -0.037400
      2 C14        118.2760   136.4760   104.1140 cc         1 Q2L      -0.156400
      3 C15        117.4210   137.5930   104.0740 cd         1 Q2L       0.030700
      4 C16        115.9500   137.6430   103.8760 ca         1 Q2L      -0.048800
      5 C17        115.3440   138.8540   103.4650 ca         1 Q2L      -0.090000
      6 C18        113.9540   138.9410   103.2760 ca         1 Q2L      -0.111500
      7 C1         115.6680   131.5050   102.9640 c3         1 Q2L       0.148900
      8 O2         116.4600   132.6580   103.3010 os         1 Q2L      -0.351100
      9 C3         116.9440   132.8850   104.5770 ca         1 Q2L       0.138100
     10 C4         116.6910   131.9780   105.6310 ca         1 Q2L      -0.200000
     11 C5         117.1830   132.2340   106.9200 ca         1 Q2L      -0.067000
     12 C6         117.9260   133.3970   107.1640 ca         1 Q2L      -0.149000
     13 C7         118.1830   134.3040   106.1240 ca         1 Q2L      -0.060000
     14 C8         117.7020   134.0580   104.8170 ca         1 Q2L      -0.125300
     15 C9         117.9740   135.0490   103.6690 c3         1 Q2L       0.072800
     16 N11        119.2730   135.4370   101.5020 no         1 Q2L       0.591000
     17 O12        118.3540   135.6150   100.6930 o          1 Q2L      -0.403000
     18 O13        120.4370   135.8150   101.3280 o          1 Q2L      -0.403000
     19 C19        113.1400   137.8240   103.5110 ca         1 Q2L      -0.100000
     20 C20        113.7190   136.6230   103.9470 ca         1 Q2L      -0.111500
     21 C21        115.1090   136.5350   104.1340 ca         1 Q2L      -0.090000
     22 N22        118.1710   138.7570   104.3640 na         1 Q2L      -0.211700
     23 C23        119.4570   138.3470   104.6320 ca         1 Q2L      -0.041200
     24 C24        120.5390   139.1500   105.0170 ca         1 Q2L      -0.126000
     25 C25        121.7700   138.5220   105.2960 ca         1 Q2L      -0.088000
     26 C26        121.8840   137.1170   105.2010 ca         1 Q2L      -0.133000
     27 C27        120.7750   136.3360   104.8160 ca         1 Q2L      -0.065000
     28 C28        119.5670   136.9920   104.5170 ca         1 Q2L      -0.094800
     29 H1         118.6410   133.5570   102.2050 h1         1 Q2L       0.093200
     30 H2         119.9740   134.2760   103.1330 h1         1 Q2L       0.093200
     31 H3         115.9510   139.7330   103.2620 ha         1 Q2L       0.120000
     32 H4         113.5090   139.8770   102.9450 ha         1 Q2L       0.115000
     33 H5         115.3920   131.5320   101.9020 h1         1 Q2L       0.043033
     34 H6         116.2290   130.5800   103.1450 h1         1 Q2L       0.043033
     35 H7         114.7440   131.4810   103.5540 h1         1 Q2L       0.043033
     36 H8         116.1150   131.0720   105.4730 ha         1 Q2L       0.118000
     37 H9         116.9860   131.5340   107.7290 ha         1 Q2L       0.113000
     38 H10        118.3040   133.5990   108.1640 ha         1 Q2L       0.119000
     39 H11        118.7550   135.1980   106.3510 ha         1 Q2L       0.132000
     40 H12        117.0610   135.1120   103.0690 hc         1 Q2L       0.096700
     41 H13        112.0630   137.8920   103.3680 ha         1 Q2L       0.114000
     42 H14        113.0880   135.7610   104.1540 ha         1 Q2L       0.115000
     43 H15        115.5100   135.6090   104.5280 ha         1 Q2L       0.120000
     44 H16        117.8110   139.7010   104.4380 hn         1 Q2L       0.353000
     45 H17        120.4330   140.2290   105.1070 ha         1 Q2L       0.114000
     46 H18        122.6280   139.1190   105.5980 ha         1 Q2L       0.112000
     47 H19        122.8310   136.6350   105.4350 ha         1 Q2L       0.112000
     48 H20        120.8630   135.2550   104.7780 ha         1 Q2L       0.111000
@<TRIPOS>BOND
     1     1    15 1   
     2     1    16 1   
     3     1    29 1   
     4     1    30 1   
     5     2     3 2   
     6     2    15 1   
     7     2    28 1   
     8     3     4 1   
     9     3    22 1   
    10     4     5 ar  
    11     4    21 ar  
    12     5     6 ar  
    13     5    31 1   
    14     6    19 ar  
    15     6    32 1   
    16     7     8 1   
    17     7    33 1   
    18     7    34 1   
    19     7    35 1   
    20     8     9 1   
    21     9    10 ar  
    22     9    14 ar  
    23    10    11 ar  
    24    10    36 1   
    25    11    12 ar  
    26    11    37 1   
    27    12    13 ar  
    28    12    38 1   
    29    13    14 ar  
    30    13    39 1   
    31    14    15 1   
    32    15    40 1   
    33    16    17 1   
    34    16    18 1   
    35    19    20 ar  
    36    19    41 1   
    37    20    21 ar  
    38    20    42 1   
    39    21    43 1   
    40    22    23 1   
    41    22    44 1   
    42    23    24 ar  
    43    23    28 ar  
    44    24    25 ar  
    45    24    45 1   
    46    25    26 ar  
    47    25    46 1   
    48    26    27 ar  
    49    26    47 1   
    50    27    28 ar  
    51    27    48 1   
@<TRIPOS>SUBSTRUCTURE
     1 Q2L         1 TEMP              0 ****  ****    0 ROOT
