@<TRIPOS>MOLECULE
Q2L
   48    51     1     0     0
SMALL
abcg2


@<TRIPOS>ATOM
      1 C10        118.9110   134.5120   102.7110 c3         1 Q2L      -0.037400
      2 C14        118.2650   136.4530   104.1700 cc         1 Q2L      -0.156400
      3 C15        117.4110   137.5320   104.1960 cd         1 Q2L       0.030700
      4 C16        115.9780   137.6050   103.9070 ca         1 Q2L      -0.048800
      5 C17        115.4570   138.6650   103.1620 ca         1 Q2L      -0.090000
      6 C18        114.0970   138.7390   102.8990 ca         1 Q2L      -0.111500
      7 C1         115.6080   131.6700   103.0160 c3         1 Q2L       0.148900
      8 O2         116.4030   132.7960   103.3300 os         1 Q2L      -0.351100
      9 C3         116.9200   132.9090   104.5690 ca         1 Q2L       0.138100
     10 C4         116.7210   131.9680   105.5750 ca         1 Q2L      -0.200000
     11 C5         117.2840   132.1650   106.8300 ca         1 Q2L      -0.067000
     12 C6         118.0390   133.2950   107.0880 ca         1 Q2L      -0.149000
     13 C7         118.2300   134.2320   106.0790 ca         1 Q2L      -0.060000
     14 C8         117.6890   134.0600   104.8140 ca         1 Q2L      -0.125300
     15 C9         117.8880   135.0780   103.7040 c3         1 Q2L       0.072800
     16 N11        119.1790   135.4620   101.5950 no         1 Q2L       0.591000
     17 O12        118.2280   135.9640   101.0480 o          1 Q2L      -0.403000
     18 O13        120.3280   135.6650   101.2860 o          1 Q2L      -0.403000
     19 C19        113.2380   137.7560   103.3700 ca         1 Q2L      -0.100000
     20 C20        113.7470   136.6990   104.1140 ca         1 Q2L      -0.111500
     21 C21        115.1050   136.6270   104.3860 ca         1 Q2L      -0.090000
     22 N22        118.1120   138.6570   104.5350 na         1 Q2L      -0.211700
     23 C23        119.4160   138.3390   104.7610 ca         1 Q2L      -0.041200
     24 C24        120.4780   139.1530   105.1510 ca         1 Q2L      -0.126000
     25 C25        121.7100   138.5550   105.3220 ca         1 Q2L      -0.088000
     26 C26        121.8800   137.1770   105.1180 ca         1 Q2L      -0.133000
     27 C27        120.8250   136.3750   104.7330 ca         1 Q2L      -0.065000
     28 C28        119.5600   136.9510   104.5410 ca         1 Q2L      -0.094800
     29 H1         118.5310   133.6070   102.2370 h1         1 Q2L       0.093200
     30 H2         119.8660   134.2820   103.1720 h1         1 Q2L       0.093200
     31 H3         116.1160   139.4300   102.7700 ha         1 Q2L       0.120000
     32 H4         113.7100   139.5660   102.3170 ha         1 Q2L       0.115000
     33 H5         115.2940   131.7950   101.9820 h1         1 Q2L       0.043033
     34 H6         116.1700   130.7370   103.1030 h1         1 Q2L       0.043033
     35 H7         114.7200   131.6100   103.6490 h1         1 Q2L       0.043033
     36 H8         116.1290   131.0800   105.3970 ha         1 Q2L       0.118000
     37 H9         117.1220   131.4250   107.6030 ha         1 Q2L       0.113000
     38 H10        118.4740   133.4560   108.0650 ha         1 Q2L       0.119000
     39 H11        118.8090   135.1210   106.2900 ha         1 Q2L       0.132000
     40 H12        116.9420   135.1620   103.1650 hc         1 Q2L       0.096700
     41 H13        112.1780   137.8140   103.1620 ha         1 Q2L       0.114000
     42 H14        113.0830   135.9340   104.4960 ha         1 Q2L       0.115000
     43 H15        115.4830   135.8170   104.9990 ha         1 Q2L       0.120000
     44 H16        117.7020   139.5630   104.6990 hn         1 Q2L       0.353000
     45 H17        120.3390   140.2140   105.3140 ha         1 Q2L       0.114000
     46 H18        122.5570   139.1570   105.6240 ha         1 Q2L       0.112000
     47 H19        122.8570   136.7350   105.2710 ha         1 Q2L       0.112000
     48 H20        120.9820   135.3110   104.6070 ha         1 Q2L       0.111000
@<TRIPOS>BOND
     1     1    15 1   
     2     1    16 1   
     3     1    29 1   
     4     1    30 1   
     5     2     3 2   
     6     2    15 1   
     7     2    28 1   
     8     3     4 1   
     9     3    22 1   
    10     4     5 ar  
    11     4    21 ar  
    12     5     6 ar  
    13     5    31 1   
    14     6    19 ar  
    15     6    32 1   
    16     7     8 1   
    17     7    33 1   
    18     7    34 1   
    19     7    35 1   
    20     8     9 1   
    21     9    10 ar  
    22     9    14 ar  
    23    10    11 ar  
    24    10    36 1   
    25    11    12 ar  
    26    11    37 1   
    27    12    13 ar  
    28    12    38 1   
    29    13    14 ar  
    30    13    39 1   
    31    14    15 1   
    32    15    40 1   
    33    16    17 1   
    34    16    18 1   
    35    19    20 ar  
    36    19    41 1   
    37    20    21 ar  
    38    20    42 1   
    39    21    43 1   
    40    22    23 1   
    41    22    44 1   
    42    23    24 ar  
    43    23    28 ar  
    44    24    25 ar  
    45    24    45 1   
    46    25    26 ar  
    47    25    46 1   
    48    26    27 ar  
    49    26    47 1   
    50    27    28 ar  
    51    27    48 1   
@<TRIPOS>SUBSTRUCTURE
     1 Q2L         1 TEMP              0 ****  ****    0 ROOT
