@<TRIPOS>MOLECULE
Q2M
   68    72     1     0     0
SMALL
No Charge or Current Charge


@<TRIPOS>ATOM
      1 C1          16.1200   -22.8670    13.0430 ca         1 Q2M       0.168900
      2 C2          17.9030   -22.1390    11.8080 ca         1 Q2M       0.113500
      3 C3          17.2230   -22.4290    10.6530 ca         1 Q2M      -0.090600
      4 C4          19.1230   -21.6440    10.0090 cc         1 Q2M       0.445700
      5 C5          20.2000   -21.2070    12.2790 c5         1 Q2M       0.314300
      6 C6          21.6820   -21.4380    11.7820 c5         1 Q2M       0.139300
      7 C7          22.1570   -19.9810    11.4980 c5         1 Q2M       0.086300
      8 C8          21.3820   -19.2260    12.6170 c5         1 Q2M       0.124300
      9 O1          23.5910   -19.8800    11.6100 oh         1 Q2M      -0.718000
     10 N1          15.3620   -23.1860    11.9650 nb         1 Q2M      -0.313000
     11 N2          17.3730   -22.3510    13.0290 nb         1 Q2M      -0.213000
     12 C           15.9220   -22.9660    10.7650 ca         1 Q2M       0.443900
     13 O           22.5410   -21.9850    12.7900 oh         1 Q2M      -0.703000
     14 C22         16.4820   -14.7620    13.6110 c          1 Q2M       0.693000
     15 O2          16.2960   -13.5740    13.8400 o          1 Q2M      -0.738500
     16 C21         17.7440   -15.1770    12.7480 c3         1 Q2M       0.013500
     17 N7          17.7270   -14.7160    11.3070 n8         1 Q2M      -1.006200
     18 C20         19.0560   -14.7350    13.4560 c3         1 Q2M      -0.046400
     19 C19         20.3310   -15.4850    12.9840 c3         1 Q2M       0.196800
     20 C10         20.6040   -17.1510    14.8190 c3         1 Q2M       0.199800
     21 C11         19.7760   -18.3030    15.4140 cy         1 Q2M      -0.101700
     22 C18         19.3240   -18.1980    16.9110 cy         1 Q2M       0.148300
     23 N6          18.1550   -19.0100    16.4640 nq         1 Q2M      -0.729600
     24 C13         16.9090   -19.0370    17.2320 c3         1 Q2M       0.236100
     25 C14         15.8240   -19.8200    16.5450 cc         1 Q2M      -0.192300
     26 S           15.4840   -21.4890    16.9910 ss         1 Q2M       0.192000
     27 C17         14.1750   -21.5760    15.8150 cc         1 Q2M      -0.267000
     28 C16         14.0510   -20.3930    15.1320 cd         1 Q2M      -0.127000
     29 C15         14.9800   -19.4010    15.5450 cd         1 Q2M      -0.115000
     30 C12         18.2380   -18.3360    15.1330 cy         1 Q2M       0.148300
     31 C9          21.3550   -17.6750    12.4820 c3         1 Q2M       0.201800
     32 O4          20.0600   -19.7850    12.4890 os         1 Q2M      -0.397000
     33 N4          19.1100   -21.6430    11.4080 na         1 Q2M      -0.301300
     34 N3          17.9680   -22.1260     9.5080 nd         1 Q2M      -0.572100
     35 H7          15.6800   -23.0500    14.0200 h5         1 Q2M       0.038100
     36 H8          19.9690   -21.2880     9.4320 h5         1 Q2M       0.087800
     37 H           20.0580   -21.7350    13.2310 h2         1 Q2M       0.124700
     38 H1          21.7200   -22.0550    10.8740 h1         1 Q2M       0.069700
     39 H2          21.8190   -19.6530    10.5040 h1         1 Q2M       0.045700
     40 H3          21.7870   -19.4830    13.6040 h1         1 Q2M       0.084700
     41 H10         23.8790   -19.0940    11.0850 ho         1 Q2M       0.515000
     42 H5          14.1600   -23.3830     9.8180 hn         1 Q2M       0.500500
     43 H6          15.4710   -22.9300     8.7810 hn         1 Q2M       0.500500
     44 H9          23.3550   -21.4250    12.6830 ho         1 Q2M       0.523000
     45 H4          17.7420   -16.2760    12.7370 h1         1 Q2M       0.060700
     46 H15         16.8780   -15.0740    10.8520 hn         1 Q2M       0.383000
     47 H31         17.5880   -13.6980    11.2920 hn         1 Q2M       0.383000
     48 H27         18.9340   -14.8600    14.5380 hc         1 Q2M       0.038700
     49 H28         19.2030   -13.6600    13.2970 hc         1 Q2M       0.038700
     50 H26         20.3910   -15.3810    11.8920 h1         1 Q2M       0.017700
     51 H25         21.2080   -14.9640    13.3920 h1         1 Q2M       0.017700
     52 H13         21.6640   -17.3330    15.0440 h1         1 Q2M       0.029200
     53 H14         20.3260   -16.2540    15.3870 h1         1 Q2M       0.029200
     54 H33         20.2750   -19.2510    15.1920 hc         1 Q2M       0.047700
     55 H24         19.9990   -18.6750    17.6330 h1         1 Q2M       0.060950
     56 H23         19.0860   -17.1760    17.2350 h1         1 Q2M       0.060950
     57 H18         17.1080   -19.4810    18.2170 h1         1 Q2M       0.044700
     58 H19         16.5620   -18.0070    17.3930 h1         1 Q2M       0.044700
     59 H22         13.6060   -22.4900    15.7120 h4         1 Q2M       0.135000
     60 H21         13.3110   -20.2290    14.3540 ha         1 Q2M       0.126000
     61 H20         15.0180   -18.4050    15.1140 ha         1 Q2M       0.149000
     62 H16         17.7760   -17.3410    15.0820 h1         1 Q2M       0.060950
     63 H17         17.9410   -18.9350    14.2640 h1         1 Q2M       0.060950
     64 H11         22.3760   -17.3060    12.6530 h1         1 Q2M       0.021200
     65 H12         21.1160   -17.4530    11.4330 h1         1 Q2M       0.021200
     66 N           15.1620   -23.2860     9.6830 nv         1 Q2M      -1.071900
     67 N5          20.4050   -16.9250    13.3590 n3         1 Q2M      -0.741600
     68 O3          15.6870   -15.6340    13.9330 o          1 Q2M      -0.738500
@<TRIPOS>BOND
     1     1    10 ar  
     2     1    11 ar  
     3     1    35 1   
     4     2     3 ar  
     5     2    11 ar  
     6     2    33 1   
     7     3    12 ar  
     8     3    34 1   
     9     4    33 1   
    10     4    34 2   
    11     4    36 1   
    12     5     6 1   
    13     5    32 1   
    14     5    33 1   
    15     5    37 1   
    16     6     7 1   
    17     6    13 1   
    18     6    38 1   
    19     7     8 1   
    20     7     9 1   
    21     7    39 1   
    22     8    31 1   
    23     8    32 1   
    24     8    40 1   
    25     9    41 1   
    26    10    12 ar  
    27    12    66 1   
    28    13    44 1   
    29    14    15 1   
    30    14    16 1   
    31    14    68 1   
    32    16    17 1   
    33    16    18 1   
    34    16    45 1   
    35    17    46 1   
    36    17    47 1   
    37    18    19 1   
    38    18    48 1   
    39    18    49 1   
    40    19    50 1   
    41    19    51 1   
    42    19    67 1   
    43    20    21 1   
    44    20    52 1   
    45    20    53 1   
    46    20    67 1   
    47    21    22 1   
    48    21    30 1   
    49    21    54 1   
    50    22    23 1   
    51    22    55 1   
    52    22    56 1   
    53    23    24 1   
    54    23    30 1   
    55    24    25 1   
    56    24    57 1   
    57    24    58 1   
    58    25    26 1   
    59    25    29 2   
    60    26    27 1   
    61    27    28 2   
    62    27    59 1   
    63    28    29 1   
    64    28    60 1   
    65    29    61 1   
    66    30    62 1   
    67    30    63 1   
    68    31    64 1   
    69    31    65 1   
    70    31    67 1   
    71    42    66 1   
    72    43    66 1   
@<TRIPOS>SUBSTRUCTURE
     1 Q2M         1 TEMP              0 ****  ****    0 ROOT
