@<TRIPOS>MOLECULE
Q2M
   68    72     1     0     0
SMALL
bcc


@<TRIPOS>ATOM
      1 C1          16.4010   -23.0110     8.4330 ca         1 Q2M       0.694900
      2 C2          17.5510   -21.3820     9.3500 ca         1 Q2M       0.441800
      3 C3          17.5320   -20.6290     8.1860 ca         1 Q2M      -0.221200
      4 C4          18.5910   -19.4780     9.6050 cc         1 Q2M       0.445700
      5 C5          18.4740   -21.0050    11.6440 c5         1 Q2M       0.261800
      6 C6          19.6230   -22.0030    11.7940 c5         1 Q2M       0.116100
      7 C7          20.8000   -21.0630    12.0430 c5         1 Q2M       0.063100
      8 C8          20.1480   -19.9600    12.8820 c5         1 Q2M       0.101100
      9 O1          21.8420   -21.7490    12.6730 oh         1 Q2M      -0.595800
     10 N1          16.3010   -22.4030     7.2540 nb         1 Q2M      -0.839000
     11 N2          17.0020   -22.5820     9.5300 nb         1 Q2M      -0.739000
     12 C           16.8580   -21.1980     7.0900 ca         1 Q2M       0.772200
     13 O           19.3350   -22.7860    12.9210 oh         1 Q2M      -0.580800
     14 C22         16.0900   -15.9950    13.9190 c          1 Q2M       0.903600
     15 O2          15.1550   -15.4210    13.3260 o          1 Q2M      -0.843800
     16 C21         17.2150   -16.6150    13.0550 c3         1 Q2M       0.013500
     17 N7          16.8810   -16.8360    11.6530 n8         1 Q2M      -0.895800
     18 C20         18.4700   -15.7430    13.1520 c3         1 Q2M      -0.046400
     19 C19         19.7370   -16.4270    12.6490 c3         1 Q2M       0.196800
     20 C10         20.7680   -17.1490    14.7220 c3         1 Q2M       0.199800
     21 C11         20.6150   -18.1910    15.8070 cy         1 Q2M      -0.101700
     22 C18         20.8170   -17.7430    17.2660 cy         1 Q2M       0.148300
     23 N6          19.6090   -18.4870    17.6350 nq         1 Q2M      -0.729600
     24 C13         18.7050   -17.8850    18.5790 c3         1 Q2M       0.236100
     25 C14         17.5060   -18.7510    18.7790 cc         1 Q2M      -0.047400
     26 S           17.6970   -20.4550    18.9560 ss         1 Q2M      -0.097800
     27 C17         16.0080   -20.6880    19.1510 cc         1 Q2M      -0.140100
     28 C16         15.3300   -19.5110    19.0740 cd         1 Q2M      -0.145000
     29 C15         16.1920   -18.3990    18.8530 cd         1 Q2M      -0.133000
     30 C12         19.1830   -18.5440    16.2320 cy         1 Q2M       0.148300
     31 C9          20.8390   -18.6110    12.7800 c3         1 Q2M       0.201800
     32 O4          18.8180   -19.8670    12.3670 os         1 Q2M      -0.350600
     33 N4          18.2410   -20.6300    10.2540 na         1 Q2M      -0.272000
     34 N3          18.1880   -19.4400     8.3680 nd         1 Q2M      -0.572100
     35 H7          15.9240   -23.9830     8.4980 h5         1 Q2M       0.038100
     36 H8          19.1370   -18.6880    10.0950 h5         1 Q2M       0.087800
     37 H           17.5370   -21.4360    12.0130 h2         1 Q2M       0.124700
     38 H1          19.7560   -22.6160    10.8950 h1         1 Q2M       0.069700
     39 H2          21.1200   -20.6420    11.0780 h1         1 Q2M       0.045700
     40 H3          20.1020   -20.2800    13.9290 h1         1 Q2M       0.084700
     41 H10         22.6160   -21.1800    12.7230 ho         1 Q2M       0.416000
     42 H5          16.2140   -21.0060     5.1700 hn         1 Q2M       0.445300
     43 H6          17.1080   -19.6590     5.7690 hn         1 Q2M       0.445300
     44 H9          20.1470   -23.2140    13.2130 ho         1 Q2M       0.424000
     45 H4          17.4610   -17.5880    13.4890 h1         1 Q2M       0.060700
     46 H15         16.1910   -17.5760    11.5930 hn         1 Q2M       0.327800
     47 H31         16.3980   -16.0100    11.3170 hn         1 Q2M       0.327800
     48 H27         18.6070   -15.4140    14.1840 hc         1 Q2M       0.038700
     49 H28         18.3200   -14.8290    12.5660 hc         1 Q2M       0.038700
     50 H26         19.5430   -16.7950    11.6420 h1         1 Q2M       0.017700
     51 H25         20.5420   -15.6790    12.5550 h1         1 Q2M       0.017700
     52 H13         21.8360   -16.9060    14.5840 h1         1 Q2M       0.029200
     53 H14         20.2870   -16.2320    15.0670 h1         1 Q2M       0.029200
     54 H33         21.2010   -19.0860    15.5850 hc         1 Q2M       0.047700
     55 H24         21.7280   -18.0520    17.7830 h1         1 Q2M       0.060950
     56 H23         20.7060   -16.6550    17.3740 h1         1 Q2M       0.060950
     57 H18         19.2350   -17.7490    19.5270 h1         1 Q2M       0.044700
     58 H19         18.3600   -16.8860    18.2640 h1         1 Q2M       0.044700
     59 H22         15.6040   -21.6780    19.2970 h4         1 Q2M       0.153000
     60 H21         14.2550   -19.4340    19.1600 ha         1 Q2M       0.144000
     61 H20         15.8480   -17.3790    18.7530 ha         1 Q2M       0.167000
     62 H16         18.4660   -17.7540    15.9650 h1         1 Q2M       0.060950
     63 H17         18.7700   -19.5040    15.9120 h1         1 Q2M       0.060950
     64 H11         21.8630   -18.7350    13.1620 h1         1 Q2M       0.021200
     65 H12         20.9510   -18.3570    11.7210 h1         1 Q2M       0.021200
     66 N           16.7630   -20.5930     5.9040 nv         1 Q2M      -0.961500
     67 N5          20.1410   -17.5500    13.4790 n3         1 Q2M      -0.741600
     68 O3          16.2320   -16.1020    15.1580 o          1 Q2M      -0.843800
@<TRIPOS>BOND
     1     1    10 ar  
     2     1    11 ar  
     3     1    35 1   
     4     2     3 ar  
     5     2    11 ar  
     6     2    33 1   
     7     3    12 ar  
     8     3    34 1   
     9     4    33 1   
    10     4    34 2   
    11     4    36 1   
    12     5     6 1   
    13     5    32 1   
    14     5    33 1   
    15     5    37 1   
    16     6     7 1   
    17     6    13 1   
    18     6    38 1   
    19     7     8 1   
    20     7     9 1   
    21     7    39 1   
    22     8    31 1   
    23     8    32 1   
    24     8    40 1   
    25     9    41 1   
    26    10    12 ar  
    27    12    66 1   
    28    13    44 1   
    29    14    15 1   
    30    14    16 1   
    31    14    68 1   
    32    16    17 1   
    33    16    18 1   
    34    16    45 1   
    35    17    46 1   
    36    17    47 1   
    37    18    19 1   
    38    18    48 1   
    39    18    49 1   
    40    19    50 1   
    41    19    51 1   
    42    19    67 1   
    43    20    21 1   
    44    20    52 1   
    45    20    53 1   
    46    20    67 1   
    47    21    22 1   
    48    21    30 1   
    49    21    54 1   
    50    22    23 1   
    51    22    55 1   
    52    22    56 1   
    53    23    24 1   
    54    23    30 1   
    55    24    25 1   
    56    24    57 1   
    57    24    58 1   
    58    25    26 1   
    59    25    29 2   
    60    26    27 1   
    61    27    28 2   
    62    27    59 1   
    63    28    29 1   
    64    28    60 1   
    65    29    61 1   
    66    30    62 1   
    67    30    63 1   
    68    31    64 1   
    69    31    65 1   
    70    31    67 1   
    71    42    66 1   
    72    43    66 1   
@<TRIPOS>SUBSTRUCTURE
     1 Q2M         1 TEMP              0 ****  ****    0 ROOT
