@<TRIPOS>MOLECULE
Q2N
   34    36     1     0     0
SMALL
No Charge or Current Charge


@<TRIPOS>ATOM
      1 C10          0.8270    -0.2750    -1.0200 cc         1 Q2N       0.533300
      2 N12         -0.3190     0.4560    -1.1830 ns         1 Q2N      -0.477400
      3 C13         -1.5130     0.0710    -1.7380 c          1 Q2N       0.602100
      4 C15         -3.5990     0.8980    -0.5940 ca         1 Q2N      -0.094300
      5 C17         -5.6200    -0.1850     0.2430 ca         1 Q2N      -0.150000
      6 C20         -3.4130     1.5060     0.6640 ca         1 Q2N      -0.064500
      7 C01          5.6280     1.5800     1.3450 ca         1 Q2N      -0.080000
      8 C02          6.6570     0.6280     1.3910 ca         1 Q2N      -0.164000
      9 C03          6.4250    -0.6550     0.8700 ca         1 Q2N       0.338900
     10 N04          5.2450    -1.0220     0.3190 nb         1 Q2N      -0.673000
     11 C05          4.2350    -0.1070     0.2670 ca         1 Q2N       0.322000
     12 C06          4.4020     1.2030     0.7740 ca         1 Q2N      -0.130000
     13 C07          2.9380    -0.5330    -0.3470 cd         1 Q2N       0.246000
     14 C08          2.7030    -1.7920    -0.8610 cc         1 Q2N      -0.261000
     15 S09          1.0900    -1.9400    -1.4930 ss         1 Q2N       0.066600
     16 N11          1.8460     0.3340    -0.4450 nd         1 Q2N      -0.708000
     17 C14         -2.6050     1.1480    -1.7250 c3         1 Q2N      -0.101100
     18 C16         -4.7070     0.0510    -0.8000 ca         1 Q2N      -0.064500
     19 C18         -5.4280     0.4250     1.4920 ca         1 Q2N       0.180000
     20 C19         -4.3280     1.2690     1.7060 ca         1 Q2N      -0.150000
     21 F21         -6.3060     0.1980     2.4930 f          1 Q2N      -0.177000
     22 O22         -1.7110    -1.0440    -2.1960 o          1 Q2N      -0.554100
     23 H1          -0.2850     1.4030    -0.8380 hn         1 Q2N       0.338500
     24 H2          -6.4740    -0.8390     0.0850 ha         1 Q2N       0.134000
     25 H3          -2.5620     2.1610     0.8380 ha         1 Q2N       0.116000
     26 H4           5.7760     2.5830     1.7400 ha         1 Q2N       0.118000
     27 H5           7.6230     0.8730     1.8230 ha         1 Q2N       0.123000
     28 H6           7.2060    -1.4130     0.8930 h4         1 Q2N       0.018100
     29 H7           3.5870     1.9190     0.7240 ha         1 Q2N       0.141000
     30 H8           3.3760    -2.6370    -0.9060 h4         1 Q2N       0.177000
     31 H9          -2.1510     2.1370    -1.5930 hc         1 Q2N       0.071700
     32 H10         -3.1310     1.1210    -2.6870 hc         1 Q2N       0.071700
     33 H11         -4.8590    -0.4280    -1.7650 ha         1 Q2N       0.116000
     34 H12         -4.1850     1.7370     2.6760 ha         1 Q2N       0.134000
@<TRIPOS>BOND
     1     1     2 1   
     2     1    15 1   
     3     1    16 2   
     4     2     3 1   
     5     2    23 1   
     6     3    17 1   
     7     3    22 2   
     8     4     6 ar  
     9     4    17 1   
    10     4    18 ar  
    11     5    18 ar  
    12     5    19 ar  
    13     5    24 1   
    14     6    20 ar  
    15     6    25 1   
    16     7     8 ar  
    17     7    12 ar  
    18     7    26 1   
    19     8     9 ar  
    20     8    27 1   
    21     9    10 ar  
    22     9    28 1   
    23    10    11 ar  
    24    11    12 ar  
    25    11    13 1   
    26    12    29 1   
    27    13    14 2   
    28    13    16 1   
    29    14    15 1   
    30    14    30 1   
    31    17    31 1   
    32    17    32 1   
    33    18    33 1   
    34    19    20 ar  
    35    19    21 1   
    36    20    34 1   
@<TRIPOS>SUBSTRUCTURE
     1 Q2N         1 TEMP              0 ****  ****    0 ROOT
