@<TRIPOS>MOLECULE
Q2N
   34    36     1     0     0
SMALL
abcg2


@<TRIPOS>ATOM
      1 C10          1.0210     0.0740    -0.0090 cc         1 Q2N       0.533300
      2 N12         -0.1030     0.8600    -0.0040 ns         1 Q2N      -0.477400
      3 C13         -1.3810     0.3850    -0.0030 c          1 Q2N       0.602100
      4 C15         -3.8300     0.9020     0.0110 ca         1 Q2N      -0.094300
      5 C17         -5.7670     0.0740    -1.1810 ca         1 Q2N      -0.150000
      6 C20         -4.4830     0.6470     1.2130 ca         1 Q2N      -0.064500
      7 C01          6.3320     1.6020     0.0160 ca         1 Q2N      -0.080000
      8 C02          7.2460     0.5590     0.0020 ca         1 Q2N      -0.164000
      9 C03          6.7520    -0.7380    -0.0160 ca         1 Q2N       0.338900
     10 N04          5.4610    -1.0290    -0.0200 nb         1 Q2N      -0.673000
     11 C05          4.5830    -0.0270    -0.0070 ca         1 Q2N       0.322000
     12 C06          4.9780     1.3090     0.0120 ca         1 Q2N      -0.130000
     13 C07          3.1620    -0.3960    -0.0120 cd         1 Q2N       0.246000
     14 C08          2.6810    -1.6670    -0.0230 cc         1 Q2N      -0.261000
     15 S09          0.9630    -1.6580    -0.0230 ss         1 Q2N       0.066600
     16 N11          2.2070     0.5850    -0.0040 nd         1 Q2N      -0.708000
     17 C14         -2.4410     1.4630     0.0000 c3         1 Q2N      -0.101100
     18 C16         -4.4860     0.6070    -1.1800 ca         1 Q2N      -0.064500
     19 C18         -6.3830    -0.1640     0.0320 ca         1 Q2N       0.180000
     20 C19         -5.7640     0.1140     1.2350 ca         1 Q2N      -0.150000
     21 F21         -7.6250    -0.6750     0.0420 f          1 Q2N      -0.177000
     22 O22         -1.6110    -0.8060    -0.0060 o          1 Q2N      -0.554100
     23 H1           0.0590     1.8580    -0.0000 hn         1 Q2N       0.338500
     24 H2          -6.2750    -0.1490    -2.1100 ha         1 Q2N       0.134000
     25 H3          -3.9930     0.8720     2.1520 ha         1 Q2N       0.116000
     26 H4           6.6670     2.6310     0.0300 ha         1 Q2N       0.118000
     27 H5           8.3120     0.7390     0.0040 ha         1 Q2N       0.123000
     28 H6           7.4360    -1.5800    -0.0280 h4         1 Q2N       0.018100
     29 H7           4.2390     2.0970     0.0220 ha         1 Q2N       0.141000
     30 H8           3.2380    -2.5900    -0.0300 h4         1 Q2N       0.177000
     31 H9          -2.2740     2.1070     0.8690 hc         1 Q2N       0.071700
     32 H10         -2.2840     2.1000    -0.8750 hc         1 Q2N       0.071700
     33 H11         -3.9980     0.8010    -2.1270 ha         1 Q2N       0.116000
     34 H12         -6.2710    -0.0770     2.1720 ha         1 Q2N       0.134000
@<TRIPOS>BOND
     1     1     2 1   
     2     1    15 1   
     3     1    16 2   
     4     2     3 1   
     5     2    23 1   
     6     3    17 1   
     7     3    22 2   
     8     4     6 ar  
     9     4    17 1   
    10     4    18 ar  
    11     5    18 ar  
    12     5    19 ar  
    13     5    24 1   
    14     6    20 ar  
    15     6    25 1   
    16     7     8 ar  
    17     7    12 ar  
    18     7    26 1   
    19     8     9 ar  
    20     8    27 1   
    21     9    10 ar  
    22     9    28 1   
    23    10    11 ar  
    24    11    12 ar  
    25    11    13 1   
    26    12    29 1   
    27    13    14 2   
    28    13    16 1   
    29    14    15 1   
    30    14    30 1   
    31    17    31 1   
    32    17    32 1   
    33    18    33 1   
    34    19    20 ar  
    35    19    21 1   
    36    20    34 1   
@<TRIPOS>SUBSTRUCTURE
     1 Q2N         1 TEMP              0 ****  ****    0 ROOT
