@<TRIPOS>MOLECULE
Q2O
   14    14     1     0     0
SMALL
abcg2


@<TRIPOS>ATOM
      1 N           21.0010    -0.8170     1.1850 na         1 Q2O       0.084800
      2 C           20.8650     0.5490     0.7280 c3         1 Q2O       0.073900
      3 C1          21.9270    -2.5340     2.0460 cc         1 Q2O       0.270900
      4 C2          20.6310    -2.9330     1.6770 cc         1 Q2O      -0.292000
      5 C3          20.0630    -1.7910     1.1260 cd         1 Q2O       0.210000
      6 N1          22.1610    -1.2580     1.7600 nd         1 Q2O      -0.530800
      7 N2          18.8350    -1.5830     0.5220 nv         1 Q2O      -1.048000
      8 H1          21.8320     1.0330     0.8350 h1         1 Q2O       0.053700
      9 H2          20.5630     0.5710    -0.3200 h1         1 Q2O       0.053700
     10 H3          20.1250     1.0890     1.3230 h1         1 Q2O       0.053700
     11 H4          22.6980    -3.1280     2.5140 h4         1 Q2O       0.034100
     12 H5          20.1640    -3.8970     1.7930 ha         1 Q2O       0.143000
     13 H6          18.1640    -2.3080     0.7310 hn         1 Q2O       0.446500
     14 H7          18.4310    -0.6690     0.6820 hn         1 Q2O       0.446500
@<TRIPOS>BOND
     1     1     2 1   
     2     1     5 1   
     3     1     6 1   
     4     2     8 1   
     5     2     9 1   
     6     2    10 1   
     7     3     4 1   
     8     3     6 2   
     9     3    11 1   
    10     4     5 2   
    11     4    12 1   
    12     5     7 1   
    13     7    13 1   
    14     7    14 1   
@<TRIPOS>SUBSTRUCTURE
     1 Q2O         1 TEMP              0 ****  ****    0 ROOT
