@<TRIPOS>MOLECULE
Q2O
   14    14     1     0     0
SMALL
No Charge or Current Charge


@<TRIPOS>ATOM
      1 N           21.0260    -0.8050     1.2020 na         1 Q2O       0.084800
      2 C           20.8970     0.5890     0.7480 c3         1 Q2O       0.073900
      3 C1          21.9310    -2.5370     2.0120 cc         1 Q2O       0.270900
      4 C2          20.6170    -2.9040     1.6840 cc         1 Q2O      -0.292000
      5 C3          20.0340    -1.8030     1.1670 cd         1 Q2O       0.210000
      6 N1          22.2230    -1.2780     1.7390 nd         1 Q2O      -0.530800
      7 N2          18.7620    -1.6250     0.6930 nv         1 Q2O      -1.048000
      8 H1          21.8490     1.1180     0.8800 h1         1 Q2O       0.053700
      9 H2          20.6200     0.6040    -0.3130 h1         1 Q2O       0.053700
     10 H3          20.1200     1.0940     1.3350 h1         1 Q2O       0.053700
     11 H4          22.6950    -3.1660     2.4500 h4         1 Q2O       0.034100
     12 H5          20.1800    -3.8850     1.8270 ha         1 Q2O       0.143000
     13 H6          18.0740    -2.3740     0.7710 hn         1 Q2O       0.446500
     14 H7          18.4320    -0.7040     0.4080 hn         1 Q2O       0.446500
@<TRIPOS>BOND
     1     1     2 1   
     2     1     5 1   
     3     1     6 1   
     4     2     8 1   
     5     2     9 1   
     6     2    10 1   
     7     3     4 1   
     8     3     6 2   
     9     3    11 1   
    10     4     5 2   
    11     4    12 1   
    12     5     7 1   
    13     7    13 1   
    14     7    14 1   
@<TRIPOS>SUBSTRUCTURE
     1 Q2O         1 TEMP              0 ****  ****    0 ROOT
