@<TRIPOS>MOLECULE
Q2P
   71    75     1     0     0
SMALL
abcg2


@<TRIPOS>ATOM
      1 C1         261.8260   -89.4550   213.2460 ca         1 Q2P       0.167900
      2 O1         265.7410   -92.9200   217.5450 oh         1 Q2P      -0.719000
      3 C2         263.7540   -89.2540   214.2740 ca         1 Q2P       0.111500
      4 N          264.0560   -88.2460   210.8100 nv         1 Q2P      -1.072900
      5 C3         264.3850   -88.7850   213.1330 ca         1 Q2P      -0.091600
      6 C4         265.8610   -88.8080   214.6420 cc         1 Q2P       0.442700
      7 C5         264.5110   -89.6680   216.6280 c5         1 Q2P       0.316300
      8 C6         264.3000   -91.1770   216.7550 c5         1 Q2P       0.140300
      9 C7         265.7360   -91.6510   216.9580 c5         1 Q2P       0.086300
     10 C8         266.3130   -90.5300   217.8260 c5         1 Q2P       0.123300
     11 C9         267.8160   -90.3630   217.7050 c3         1 Q2P       0.199800
     12 C10        269.0360   -89.7290   219.7050 c3         1 Q2P       0.196800
     13 C11        268.0850   -90.2430   220.7660 cy         1 Q2P      -0.102700
     14 C12        268.6050   -90.3170   222.2120 cy         1 Q2P       0.144300
     15 C14        266.1810   -87.9390   223.8750 ca         1 Q2P      -0.081300
     16 C15        265.9480   -86.7070   223.2730 ca         1 Q2P      -0.076000
     17 C16        264.7160   -86.0890   223.4310 ca         1 Q2P       0.121000
     18 C17        263.7030   -86.6710   224.1740 ca         1 Q2P      -0.116000
     19 C18        263.9400   -87.9040   224.7690 ca         1 Q2P      -0.126000
     20 C24        267.5750   -85.0430   219.4100 c          1 Q2P       0.695000
     21 C23        267.5870   -86.2830   218.4800 c3         1 Q2P       0.014500
     22 N7         267.1030   -86.0520   217.1250 n8         1 Q2P      -1.003200
     23 C22        268.9960   -86.8810   218.4310 c3         1 Q2P      -0.048400
     24 N5         268.3440   -89.2810   218.5130 n3         1 Q2P      -0.741600
     25 O          263.5160   -91.3840   217.8990 oh         1 Q2P      -0.703000
     26 O4         265.6450   -89.3500   217.3680 os         1 Q2P      -0.397000
     27 N4         264.7200   -89.2720   215.2370 na         1 Q2P      -0.304300
     28 N2         262.4740   -89.6050   214.3880 nb         1 Q2P      -0.213000
     29 N1         262.2950   -89.0220   212.0780 nb         1 Q2P      -0.313000
     30 N3         265.7030   -88.5110   213.3850 nd         1 Q2P      -0.574100
     31 C          263.5830   -88.6740   211.9810 ca         1 Q2P       0.444900
     32 C20        267.0620   -89.2330   221.3020 cy         1 Q2P       0.144300
     33 N6         267.3690   -89.6690   222.6700 nq         1 Q2P      -0.716600
     34 C19        265.1650   -88.5360   224.6170 ca         1 Q2P      -0.099000
     35 CL         264.4410   -84.5530   222.6690 cl         1 Q2P      -0.187000
     36 H7         260.7730   -89.7190   213.2550 h5         1 Q2P       0.038100
     37 H10        266.6460   -93.2410   217.6080 ho         1 Q2P       0.515000
     38 H6         263.4400   -88.1450   210.0210 hn         1 Q2P       0.502000
     39 H5         265.0080   -87.9380   210.7150 hn         1 Q2P       0.502000
     40 H8         266.7850   -88.7010   215.1880 h5         1 Q2P       0.093800
     41 H          263.6410   -89.1140   216.9940 h2         1 Q2P       0.123700
     42 H1         263.8370   -91.6070   215.8590 h1         1 Q2P       0.074700
     43 H2         266.2480   -91.6550   215.9840 h1         1 Q2P       0.047700
     44 H3         266.0410   -90.7030   218.8730 h1         1 Q2P       0.085700
     45 H11        268.2780   -91.3220   217.9810 h1         1 Q2P       0.022200
     46 H12        268.0690   -90.2100   216.6510 h1         1 Q2P       0.022200
     47 H14        269.7930   -90.4980   219.4760 h1         1 Q2P       0.029700
     48 H13        269.5790   -88.8800   220.1250 h1         1 Q2P       0.029700
     49 H15        267.6160   -91.1820   220.4620 hc         1 Q2P       0.048700
     50 H17        268.7970   -91.3030   222.6430 h1         1 Q2P       0.058950
     51 H16        269.4990   -89.6950   222.3570 h1         1 Q2P       0.058950
     52 H19        267.8240   -89.0990   224.6080 h1         1 Q2P       0.038700
     53 H18        268.2640   -87.8940   223.3980 h1         1 Q2P       0.038700
     54 H20        266.7190   -86.2380   222.6740 ha         1 Q2P       0.186000
     55 H21        262.7480   -86.1770   224.2910 ha         1 Q2P       0.114000
     56 H22        263.1580   -88.3700   225.3530 ha         1 Q2P       0.100000
     57 H4         266.9350   -87.0350   218.9350 h1         1 Q2P       0.057700
     58 H32        266.1150   -85.8370   217.1640 hn         1 Q2P       0.383500
     59 H31        267.5340   -85.2000   216.7830 hn         1 Q2P       0.383500
     60 H29        269.4070   -86.9250   219.4410 hc         1 Q2P       0.038700
     61 H28        269.6550   -86.2070   217.8700 hc         1 Q2P       0.038700
     62 H26        268.6260   -88.1750   216.7810 h1         1 Q2P       0.018200
     63 H27        270.1230   -88.5310   217.6260 h1         1 Q2P       0.018200
     64 H9         263.6230   -92.3000   218.1800 ho         1 Q2P       0.524000
     65 H24        267.3710   -88.2000   221.0950 h1         1 Q2P       0.058950
     66 H25        266.0180   -89.3460   221.0010 h1         1 Q2P       0.058950
     67 H23        265.3380   -89.4980   225.0850 ha         1 Q2P       0.107000
     68 C13        267.4970   -88.6380   223.6720 c3         1 Q2P       0.209100
     69 C21        269.0660   -88.2560   217.7750 c3         1 Q2P       0.196800
     70 O3         267.7830   -85.2670   220.6250 o          1 Q2P      -0.741000
     71 O2         267.3800   -83.9300   218.8860 o          1 Q2P      -0.741000
@<TRIPOS>BOND
     1     1    28 ar  
     2     1    29 ar  
     3     1    36 1   
     4     2     9 1   
     5     2    37 1   
     6     3     5 ar  
     7     3    27 1   
     8     3    28 ar  
     9     4    31 1   
    10     4    38 1   
    11     4    39 1   
    12     5    30 1   
    13     5    31 ar  
    14     6    27 1   
    15     6    30 2   
    16     6    40 1   
    17     7     8 1   
    18     7    26 1   
    19     7    27 1   
    20     7    41 1   
    21     8     9 1   
    22     8    25 1   
    23     8    42 1   
    24     9    10 1   
    25     9    43 1   
    26    10    11 1   
    27    10    26 1   
    28    10    44 1   
    29    11    24 1   
    30    11    45 1   
    31    11    46 1   
    32    12    13 1   
    33    12    24 1   
    34    12    47 1   
    35    12    48 1   
    36    13    14 1   
    37    13    32 1   
    38    13    49 1   
    39    14    33 1   
    40    14    50 1   
    41    14    51 1   
    42    15    16 ar  
    43    15    34 ar  
    44    15    68 1   
    45    16    17 ar  
    46    16    54 1   
    47    17    18 ar  
    48    17    35 1   
    49    18    19 ar  
    50    18    55 1   
    51    19    34 ar  
    52    19    56 1   
    53    20    21 1   
    54    20    70 1   
    55    20    71 1   
    56    21    22 1   
    57    21    23 1   
    58    21    57 1   
    59    22    58 1   
    60    22    59 1   
    61    23    60 1   
    62    23    61 1   
    63    23    69 1   
    64    24    69 1   
    65    25    64 1   
    66    29    31 ar  
    67    32    33 1   
    68    32    65 1   
    69    32    66 1   
    70    33    68 1   
    71    34    67 1   
    72    52    68 1   
    73    53    68 1   
    74    62    69 1   
    75    63    69 1   
@<TRIPOS>SUBSTRUCTURE
     1 Q2P         1 TEMP              0 ****  ****    0 ROOT
