@<TRIPOS>MOLECULE
Q2P
   71    75     1     0     0
SMALL
No Charge or Current Charge


@<TRIPOS>ATOM
      1 C1         265.0640   -91.4390   213.2050 ca         1 Q2P       0.167900
      2 O1         263.9240   -92.1620   218.7550 oh         1 Q2P      -0.719000
      3 C2         264.6920   -89.6190   214.5510 ca         1 Q2P       0.111500
      4 N          266.0870   -88.6650   211.3070 nv         1 Q2P      -1.072900
      5 C3         265.1720   -88.8000   213.5570 ca         1 Q2P      -0.091600
      6 C4         264.6510   -87.4750   215.1720 cc         1 Q2P       0.442700
      7 C5         263.6580   -89.0790   216.8500 c5         1 Q2P       0.316300
      8 C6         263.0970   -90.5180   217.1090 c5         1 Q2P       0.140300
      9 C7         264.3440   -91.2690   217.6970 c5         1 Q2P       0.086300
     10 C8         265.2810   -90.1100   218.2040 c5         1 Q2P       0.123300
     11 C9         266.6810   -90.0790   217.5110 c3         1 Q2P       0.199800
     12 C10        268.5520   -89.3220   218.9900 c3         1 Q2P       0.196800
     13 C11        267.9540   -89.7760   220.3300 cy         1 Q2P      -0.102700
     14 C12        268.8860   -89.7810   221.5900 cy         1 Q2P       0.144300
     15 C14        266.2610   -88.6210   224.2230 ca         1 Q2P      -0.081300
     16 C15        265.6850   -87.3500   224.0240 ca         1 Q2P      -0.076000
     17 C16        264.3990   -87.0710   224.5160 ca         1 Q2P       0.121000
     18 C17        263.6790   -88.0570   225.2120 ca         1 Q2P      -0.116000
     19 C18        264.2470   -89.3270   225.4140 ca         1 Q2P      -0.126000
     20 C24        268.9530   -84.7830   218.5030 c          1 Q2P       0.695000
     21 C23        268.0240   -85.8190   217.7470 c3         1 Q2P       0.014500
     22 N7         267.0280   -85.2210   216.7790 n8         1 Q2P      -1.003200
     23 C22        268.8940   -86.9080   217.0560 c3         1 Q2P      -0.048400
     24 N5         267.5720   -88.9560   217.9290 n3         1 Q2P      -0.741600
     25 O          262.0720   -90.5470   218.1080 oh         1 Q2P      -0.703000
     26 O4         264.5480   -88.8810   217.9660 os         1 Q2P      -0.397000
     27 N4         264.3570   -88.7790   215.5870 na         1 Q2P      -0.304300
     28 N2         264.6310   -90.9570   214.3940 nb         1 Q2P      -0.213000
     29 N1         265.5490   -90.7180   212.1670 nb         1 Q2P      -0.313000
     30 N3         265.1460   -87.4510   213.9190 nd         1 Q2P      -0.574100
     31 C          265.6040   -89.3910   212.3510 ca         1 Q2P       0.444900
     32 C20        267.1280   -88.7380   221.1610 cy         1 Q2P       0.144300
     33 N6         267.6260   -89.5070   222.3400 nq         1 Q2P      -0.716600
     34 C19        265.5340   -89.6080   224.9200 ca         1 Q2P      -0.099000
     35 Cl         263.6870   -85.4830   224.2610 cl         1 Q2P      -0.187000
     36 H7         265.0150   -92.5190   213.0710 h5         1 Q2P       0.038100
     37 H10        264.6630   -92.7970   218.9220 ho         1 Q2P       0.515000
     38 H6         266.0950   -89.0980   210.3880 hn         1 Q2P       0.502000
     39 H5         265.9370   -87.6590   211.3390 hn         1 Q2P       0.502000
     40 H8         264.4690   -86.6130   215.8040 h5         1 Q2P       0.093800
     41 H          262.8340   -88.3560   216.8990 h2         1 Q2P       0.123700
     42 H1         262.7320   -90.9860   216.1840 h1         1 Q2P       0.074700
     43 H2         264.8470   -91.8420   216.9060 h1         1 Q2P       0.047700
     44 H3         265.4380   -90.1960   219.2850 h1         1 Q2P       0.085700
     45 H11        267.1780   -91.0390   217.7030 h1         1 Q2P       0.022200
     46 H12        266.5200   -90.0500   216.4270 h1         1 Q2P       0.022200
     47 H14        269.2180   -90.1180   218.6310 h1         1 Q2P       0.029700
     48 H13        269.1850   -88.4600   219.2320 h1         1 Q2P       0.029700
     49 H15        267.4460   -90.7360   220.1820 hc         1 Q2P       0.048700
     50 H17        269.3760   -90.7390   221.7990 h1         1 Q2P       0.058950
     51 H16        269.6230   -88.9670   221.6020 h1         1 Q2P       0.058950
     52 H19        268.1560   -89.6320   224.3630 h1         1 Q2P       0.038700
     53 H18        268.2490   -88.0050   223.6670 h1         1 Q2P       0.038700
     54 H20        266.2310   -86.5790   223.4850 ha         1 Q2P       0.186000
     55 H21        262.6850   -87.8380   225.5920 ha         1 Q2P       0.114000
     56 H22        263.6920   -90.0930   225.9500 ha         1 Q2P       0.100000
     57 H4         267.4450   -86.3190   218.5360 h1         1 Q2P       0.057700
     58 H32        266.4490   -84.5360   217.2800 hn         1 Q2P       0.383500
     59 H31        267.5420   -84.6410   216.1050 hn         1 Q2P       0.383500
     60 H29        269.7770   -87.1090   217.6730 hc         1 Q2P       0.038700
     61 H28        269.2870   -86.5090   216.1140 hc         1 Q2P       0.038700
     62 H26        267.3770   -88.0330   216.0290 h1         1 Q2P       0.018200
     63 H27        268.8810   -88.9170   216.2590 h1         1 Q2P       0.018200
     64 H9         262.4590   -91.2210   218.7330 ho         1 Q2P       0.524000
     65 H24        267.5030   -87.7090   221.0800 h1         1 Q2P       0.058950
     66 H25        266.0460   -88.7590   220.9910 h1         1 Q2P       0.058950
     67 H23        265.9660   -90.5940   225.0740 ha         1 Q2P       0.107000
     68 C13        267.6540   -88.9280   223.6860 c3         1 Q2P       0.209100
     69 C21        268.1680   -88.2490   216.7600 c3         1 Q2P       0.196800
     70 O3         268.8800   -84.7170   219.7220 o          1 Q2P      -0.741000
     71 O2         269.6320   -84.0120   217.8350 o          1 Q2P      -0.741000
@<TRIPOS>BOND
     1     1    28 ar  
     2     1    29 ar  
     3     1    36 1   
     4     2     9 1   
     5     2    37 1   
     6     3     5 ar  
     7     3    27 1   
     8     3    28 ar  
     9     4    31 1   
    10     4    38 1   
    11     4    39 1   
    12     5    30 1   
    13     5    31 ar  
    14     6    27 1   
    15     6    30 2   
    16     6    40 1   
    17     7     8 1   
    18     7    26 1   
    19     7    27 1   
    20     7    41 1   
    21     8     9 1   
    22     8    25 1   
    23     8    42 1   
    24     9    10 1   
    25     9    43 1   
    26    10    11 1   
    27    10    26 1   
    28    10    44 1   
    29    11    24 1   
    30    11    45 1   
    31    11    46 1   
    32    12    13 1   
    33    12    24 1   
    34    12    47 1   
    35    12    48 1   
    36    13    14 1   
    37    13    32 1   
    38    13    49 1   
    39    14    33 1   
    40    14    50 1   
    41    14    51 1   
    42    15    16 ar  
    43    15    34 ar  
    44    15    68 1   
    45    16    17 ar  
    46    16    54 1   
    47    17    18 ar  
    48    17    35 1   
    49    18    19 ar  
    50    18    55 1   
    51    19    34 ar  
    52    19    56 1   
    53    20    21 1   
    54    20    70 1   
    55    20    71 1   
    56    21    22 1   
    57    21    23 1   
    58    21    57 1   
    59    22    58 1   
    60    22    59 1   
    61    23    60 1   
    62    23    61 1   
    63    23    69 1   
    64    24    69 1   
    65    25    64 1   
    66    29    31 ar  
    67    32    33 1   
    68    32    65 1   
    69    32    66 1   
    70    33    68 1   
    71    34    67 1   
    72    52    68 1   
    73    53    68 1   
    74    62    69 1   
    75    63    69 1   
@<TRIPOS>SUBSTRUCTURE
     1 Q2P         1 TEMP              0 ****  ****    0 ROOT
