@<TRIPOS>MOLECULE
Q2Q
   38    41     1     0     0
SMALL
No Charge or Current Charge


@<TRIPOS>ATOM
      1 CAA        -13.0800    -2.4110    -8.7420 ca         1 Q2Q      -0.082000
      2 CAB        -13.0840    -3.8050    -8.5780 ca         1 Q2Q      -0.118000
      3 CAC        -11.9070    -4.4780    -8.2050 ca         1 Q2Q      -0.071500
      4 CAD        -10.7100    -3.7600    -7.9720 ca         1 Q2Q      -0.156900
      5 CAE        -10.7140    -2.3590    -8.1700 ca         1 Q2Q      -0.071500
      6 CAF        -11.8930    -1.6900    -8.5430 ca         1 Q2Q      -0.118000
      7 CAG         -9.4350    -4.4680    -7.6160 ce         1 Q2Q       0.510900
      8 CAH         -9.5080    -5.7830    -6.8390 c6         1 Q2Q      -0.266700
      9 CAI         -8.4110    -5.8530    -5.7820 c          1 Q2Q       0.553800
     10 CAL         -7.1740    -4.3720    -7.2250 cd         1 Q2Q       0.084400
     11 CAN         -5.9000    -3.8760    -7.3570 cc         1 Q2Q      -0.042000
     12 CAO         -5.2030    -4.4120    -6.2290 cc         1 Q2Q       0.150300
     13 CAQ         -3.7350    -4.1630    -5.9020 c3         1 Q2Q       0.293700
     14 CAU         -5.5520    -2.8170    -8.3290 ca         1 Q2Q      -0.017000
     15 CAV         -4.7160    -1.7370    -7.9680 ca         1 Q2Q      -0.081000
     16 CAW         -4.3830    -0.7370    -8.8980 ca         1 Q2Q      -0.114000
     17 CAX         -4.8770    -0.8000   -10.2090 ca         1 Q2Q      -0.099000
     18 CAY         -5.7080    -1.8640   -10.5870 ca         1 Q2Q      -0.114000
     19 CAZ         -6.0430    -2.8630    -9.6550 ca         1 Q2Q      -0.081000
     20 FAR         -3.5760    -3.0870    -5.0980 f          1 Q2Q      -0.102000
     21 FAS         -2.9840    -3.9610    -7.0090 f          1 Q2Q      -0.102000
     22 FAT         -3.1810    -5.2150    -5.2550 f          1 Q2Q      -0.102000
     23 NAK         -7.2030    -5.2320    -6.1410 n          1 Q2Q       0.109000
     24 NAM         -8.2740    -3.9480    -7.9640 nf         1 Q2Q      -0.539100
     25 NAP         -5.9600    -5.2180    -5.4940 nd         1 Q2Q      -0.402800
     26 OAJ         -8.6200    -6.3210    -4.6690 o          1 Q2Q      -0.432000
     27 HAA        -13.9910    -1.8930    -9.0330 ha         1 Q2Q       0.119000
     28 HAB        -13.9990    -4.3680    -8.7480 ha         1 Q2Q       0.121000
     29 HAC        -11.9350    -5.5610    -8.1110 ha         1 Q2Q       0.125500
     30 HAE         -9.8040    -1.7790    -8.0250 ha         1 Q2Q       0.125500
     31 HAF        -11.8840    -0.6110    -8.6800 ha         1 Q2Q       0.121000
     32 HAH        -10.4840    -5.9860    -6.3830 hc         1 Q2Q       0.108200
     33 H1          -9.2800    -6.5650    -7.5730 hc         1 Q2Q       0.108200
     34 HAV         -4.3460    -1.6410    -6.9540 ha         1 Q2Q       0.119000
     35 HAW         -3.7440     0.0920    -8.5980 ha         1 Q2Q       0.114500
     36 HAX         -4.6180    -0.0260   -10.9290 ha         1 Q2Q       0.113000
     37 HAY         -6.0900    -1.9210   -11.6040 ha         1 Q2Q       0.114500
     38 HAZ         -6.6660    -3.6910    -9.9810 ha         1 Q2Q       0.119000
@<TRIPOS>BOND
     1     1     2 ar  
     2     1     6 ar  
     3     1    27 1   
     4     2     3 ar  
     5     2    28 1   
     6     3     4 ar  
     7     3    29 1   
     8     4     5 ar  
     9     4     7 1   
    10     5     6 ar  
    11     5    30 1   
    12     6    31 1   
    13     7     8 1   
    14     7    24 2   
    15     8     9 1   
    16     8    32 1   
    17     8    33 1   
    18     9    23 1   
    19     9    26 2   
    20    10    11 2   
    21    10    23 1   
    22    10    24 1   
    23    11    12 1   
    24    11    14 1   
    25    12    13 1   
    26    12    25 2   
    27    13    20 1   
    28    13    21 1   
    29    13    22 1   
    30    14    15 ar  
    31    14    19 ar  
    32    15    16 ar  
    33    15    34 1   
    34    16    17 ar  
    35    16    35 1   
    36    17    18 ar  
    37    17    36 1   
    38    18    19 ar  
    39    18    37 1   
    40    19    38 1   
    41    23    25 1   
@<TRIPOS>SUBSTRUCTURE
     1 Q2Q         1 TEMP              0 ****  ****    0 ROOT
