@<TRIPOS>MOLECULE
Q2Q
   38    41     1     0     0
SMALL
abcg2


@<TRIPOS>ATOM
      1 CAA        -13.1050    -2.7400    -9.0840 ca         1 Q2Q      -0.082000
      2 CAB        -13.1640    -3.7900    -8.1800 ca         1 Q2Q      -0.118000
      3 CAC        -11.9980    -4.3070    -7.6350 ca         1 Q2Q      -0.071500
      4 CAD        -10.7550    -3.7760    -7.9860 ca         1 Q2Q      -0.156900
      5 CAE        -10.7080    -2.7180    -8.9010 ca         1 Q2Q      -0.071500
      6 CAF        -11.8720    -2.2070    -9.4450 ca         1 Q2Q      -0.118000
      7 CAG         -9.5060    -4.2950    -7.4100 ce         1 Q2Q       0.510900
      8 CAH         -9.5770    -5.4740    -6.4800 c6         1 Q2Q      -0.266700
      9 CAI         -8.2770    -5.9790    -5.9150 c          1 Q2Q       0.553800
     10 CAL         -7.2450    -4.1700    -7.1820 cd         1 Q2Q       0.084400
     11 CAN         -5.9590    -3.7070    -7.3410 cc         1 Q2Q      -0.042000
     12 CAO         -5.2030    -4.5750    -6.5080 cc         1 Q2Q       0.150300
     13 CAQ         -3.7320    -4.5490    -6.2510 c3         1 Q2Q       0.293700
     14 CAU         -5.5360    -2.5990    -8.2000 ca         1 Q2Q      -0.017000
     15 CAV         -4.7370    -1.5660    -7.7110 ca         1 Q2Q      -0.081000
     16 CAW         -4.3580    -0.5190    -8.5390 ca         1 Q2Q      -0.114000
     17 CAX         -4.7760    -0.4870    -9.8620 ca         1 Q2Q      -0.099000
     18 CAY         -5.5770    -1.5080   -10.3550 ca         1 Q2Q      -0.114000
     19 CAZ         -5.9530    -2.5580    -9.5310 ca         1 Q2Q      -0.081000
     20 FAR         -3.4160    -3.6170    -5.3430 f          1 Q2Q      -0.102000
     21 FAS         -3.0490    -4.2660    -7.3620 f          1 Q2Q      -0.102000
     22 FAT         -3.2940    -5.7160    -5.7870 f          1 Q2Q      -0.102000
     23 NAK         -7.1750    -5.2300    -6.3130 n          1 Q2Q       0.109000
     24 NAM         -8.4050    -3.7140    -7.7190 nf         1 Q2Q      -0.539100
     25 NAP         -5.9310    -5.4790    -5.9070 nd         1 Q2Q      -0.402800
     26 OAJ         -8.1770    -6.9250    -5.1870 o          1 Q2Q      -0.432000
     27 HAA        -14.0160    -2.3370    -9.5080 ha         1 Q2Q       0.119000
     28 HAB        -14.1190    -4.2100    -7.8950 ha         1 Q2Q       0.121000
     29 HAC        -12.0790    -5.1260    -6.9330 ha         1 Q2Q       0.125500
     30 HAE         -9.7530    -2.2980    -9.1830 ha         1 Q2Q       0.125500
     31 HAF        -11.8190    -1.3900   -10.1520 ha         1 Q2Q       0.121000
     32 HAH        -10.2220    -5.2290    -5.6290 hc         1 Q2Q       0.108200
     33 H1         -10.0650    -6.3150    -6.9810 hc         1 Q2Q       0.108200
     34 HAV         -4.4260    -1.5620    -6.6750 ha         1 Q2Q       0.119000
     35 HAW         -3.7390     0.2770    -8.1440 ha         1 Q2Q       0.114500
     36 HAX         -4.4790     0.3310   -10.5060 ha         1 Q2Q       0.113000
     37 HAY         -5.9060    -1.4920   -11.3860 ha         1 Q2Q       0.114500
     38 HAZ         -6.5650    -3.3580    -9.9270 ha         1 Q2Q       0.119000
@<TRIPOS>BOND
     1     1     2 ar  
     2     1     6 ar  
     3     1    27 1   
     4     2     3 ar  
     5     2    28 1   
     6     3     4 ar  
     7     3    29 1   
     8     4     5 ar  
     9     4     7 1   
    10     5     6 ar  
    11     5    30 1   
    12     6    31 1   
    13     7     8 1   
    14     7    24 2   
    15     8     9 1   
    16     8    32 1   
    17     8    33 1   
    18     9    23 1   
    19     9    26 2   
    20    10    11 2   
    21    10    23 1   
    22    10    24 1   
    23    11    12 1   
    24    11    14 1   
    25    12    13 1   
    26    12    25 2   
    27    13    20 1   
    28    13    21 1   
    29    13    22 1   
    30    14    15 ar  
    31    14    19 ar  
    32    15    16 ar  
    33    15    34 1   
    34    16    17 ar  
    35    16    35 1   
    36    17    18 ar  
    37    17    36 1   
    38    18    19 ar  
    39    18    37 1   
    40    19    38 1   
    41    23    25 1   
@<TRIPOS>SUBSTRUCTURE
     1 Q2Q         1 TEMP              0 ****  ****    0 ROOT
