@<TRIPOS>MOLECULE
Q2R
   30    31     1     0     0
SMALL
bcc


@<TRIPOS>ATOM
      1 C           -2.0550     1.1560     0.5880 c          1 Q2R       0.649700
      2 O           -1.1730     1.6630     1.2320 o          1 Q2R      -0.501000
      3 C1          -3.2460     3.1840     0.5250 c3         1 Q2R       0.129700
      4 C10          2.7330    -0.0530    -0.2330 ca         1 Q2R      -0.137600
      5 C11          4.0290    -0.5310     0.4130 c          1 Q2R       0.924200
      6 C12          2.7330     1.0110    -1.1300 ca         1 Q2R      -0.090000
      7 C13          1.5490     1.4390    -1.7150 ca         1 Q2R      -0.166000
      8 C14          0.3510     0.8140    -1.4060 ca         1 Q2R      -0.133000
      9 C2          -2.0970    -0.2850     0.2150 ca         1 Q2R      -0.133600
     10 C3          -3.2870    -0.9880     0.3910 ca         1 Q2R      -0.093000
     11 C4          -3.3330    -2.3580     0.1910 ca         1 Q2R      -0.163000
     12 C5          -2.1850    -3.0310    -0.2030 ca         1 Q2R      -0.111000
     13 C6          -1.0060    -2.3300    -0.4060 ca         1 Q2R      -0.132000
     14 C7          -0.9380    -0.9530    -0.2030 cp         1 Q2R       0.061000
     15 C8           0.3280    -0.2480    -0.5030 cp         1 Q2R      -0.099000
     16 C9           1.5240    -0.6730     0.0670 ca         1 Q2R      -0.075000
     17 O1          -3.1240     1.8090     0.1570 os         1 Q2R      -0.426900
     18 O2           5.0710     0.0620     0.0740 o          1 Q2R      -0.825800
     19 O3           3.9360    -1.4710     1.2250 o          1 Q2R      -0.825800
     20 H2          -2.4150     3.7730     0.1380 h1         1 Q2R       0.041700
     21 H           -4.1730     3.5300     0.0770 h1         1 Q2R       0.041700
     22 H1          -3.2990     3.3030     1.6070 h1         1 Q2R       0.041700
     23 H8           3.6650     1.5030    -1.3730 ha         1 Q2R       0.145000
     24 H9           1.5580     2.2600    -2.4210 ha         1 Q2R       0.104000
     25 H10         -0.5650     1.1430    -1.8830 ha         1 Q2R       0.103000
     26 H3          -4.1800    -0.4700     0.7150 ha         1 Q2R       0.129000
     27 H4          -4.2580    -2.8970     0.3470 ha         1 Q2R       0.120000
     28 H5          -2.2090    -4.1010    -0.3640 ha         1 Q2R       0.123000
     29 H6          -0.1240    -2.8550    -0.7510 ha         1 Q2R       0.149000
     30 H7           1.5160    -1.4950     0.7720 ha         1 Q2R       0.148000
@<TRIPOS>BOND
     1     1     2 2   
     2     1     9 1   
     3     1    17 1   
     4     3    17 1   
     5     3    20 1   
     6     3    21 1   
     7     3    22 1   
     8     4     5 1   
     9     4     6 ar  
    10     4    16 ar  
    11     5    18 1   
    12     5    19 1   
    13     6     7 ar  
    14     6    23 1   
    15     7     8 ar  
    16     7    24 1   
    17     8    15 ar  
    18     8    25 1   
    19     9    10 ar  
    20     9    14 ar  
    21    10    11 ar  
    22    10    26 1   
    23    11    12 ar  
    24    11    27 1   
    25    12    13 ar  
    26    12    28 1   
    27    13    14 ar  
    28    13    29 1   
    29    14    15 1   
    30    15    16 ar  
    31    16    30 1   
@<TRIPOS>SUBSTRUCTURE
     1 Q2R         1 TEMP              0 ****  ****    0 ROOT
