@<TRIPOS>MOLECULE
Q2R
   30    31     1     0     0
SMALL
No Charge or Current Charge


@<TRIPOS>ATOM
      1 C           -2.0580     1.1510     0.5890 c          1 Q2R       0.600700
      2 O           -1.1010     1.6780     1.1430 o          1 Q2R      -0.452000
      3 C1          -3.2620     3.2410     0.5180 c3         1 Q2R       0.152900
      4 C10          2.7690    -0.0420    -0.2090 ca         1 Q2R      -0.137600
      5 C11          4.0590    -0.5020     0.4480 c          1 Q2R       0.713600
      6 C12          2.7670     1.0360    -1.1260 ca         1 Q2R      -0.072000
      7 C13          1.5730     1.4550    -1.7340 ca         1 Q2R      -0.148000
      8 C14          0.3640     0.8100    -1.4360 ca         1 Q2R      -0.115000
      9 C2          -2.1380    -0.3190     0.2570 ca         1 Q2R      -0.133600
     10 C3          -3.3360    -1.0400     0.4460 ca         1 Q2R      -0.075000
     11 C4          -3.3730    -2.4200     0.1960 ca         1 Q2R      -0.145000
     12 C5          -2.2180    -3.0850    -0.2420 ca         1 Q2R      -0.093000
     13 C6          -1.0270    -2.3660    -0.4420 ca         1 Q2R      -0.114000
     14 C7          -0.9560    -0.9710    -0.2080 cp         1 Q2R       0.061000
     15 C8           0.3260    -0.2630    -0.5140 cp         1 Q2R      -0.099000
     16 C9           1.5400    -0.6820     0.0810 ca         1 Q2R      -0.057000
     17 O1          -3.2010     1.8290     0.2450 os         1 Q2R      -0.450100
     18 O2           5.0980     0.0830     0.1740 o          1 Q2R      -0.720500
     19 O3           4.0170    -1.4440     1.2270 o          1 Q2R      -0.720500
     20 H2          -2.4640     3.7760    -0.0140 h1         1 Q2R       0.041700
     21 H           -4.2250     3.6520     0.1900 h1         1 Q2R       0.041700
     22 H1          -3.1560     3.4360     1.5930 h1         1 Q2R       0.041700
     23 H8           3.6940     1.5500    -1.3720 ha         1 Q2R       0.127000
     24 H9           1.5860     2.2810    -2.4420 ha         1 Q2R       0.086000
     25 H10         -0.5510     1.1380    -1.9220 ha         1 Q2R       0.085000
     26 H3          -4.2300    -0.5350     0.8050 ha         1 Q2R       0.111000
     27 H4          -4.2960    -2.9760     0.3480 ha         1 Q2R       0.102000
     28 H5          -2.2460    -4.1550    -0.4350 ha         1 Q2R       0.105000
     29 H6          -0.1470    -2.8920    -0.8030 ha         1 Q2R       0.131000
     30 H7           1.5170    -1.5120     0.7840 ha         1 Q2R       0.130000
@<TRIPOS>BOND
     1     1     2 2   
     2     1     9 1   
     3     1    17 1   
     4     3    17 1   
     5     3    20 1   
     6     3    21 1   
     7     3    22 1   
     8     4     5 1   
     9     4     6 ar  
    10     4    16 ar  
    11     5    18 1   
    12     5    19 1   
    13     6     7 ar  
    14     6    23 1   
    15     7     8 ar  
    16     7    24 1   
    17     8    15 ar  
    18     8    25 1   
    19     9    10 ar  
    20     9    14 ar  
    21    10    11 ar  
    22    10    26 1   
    23    11    12 ar  
    24    11    27 1   
    25    12    13 ar  
    26    12    28 1   
    27    13    14 ar  
    28    13    29 1   
    29    14    15 1   
    30    15    16 ar  
    31    16    30 1   
@<TRIPOS>SUBSTRUCTURE
     1 Q2R         1 TEMP              0 ****  ****    0 ROOT
