@<TRIPOS>MOLECULE
Q2S
   28    30     1     0     0
SMALL
No Charge or Current Charge


@<TRIPOS>ATOM
      1 N           -4.8220     1.0440    -0.0780 na         1 Q2S      -0.230700
      2 O            5.3140     0.3720     0.6000 o          1 Q2S      -0.721500
      3 C1           3.0400    -0.1470     0.2120 ca         1 Q2S      -0.139600
      4 C10         -5.4660    -0.1320     0.3680 cc         1 Q2S      -0.187100
      5 C11         -4.4330    -1.0410     0.5480 cd         1 Q2S      -0.238200
      6 C12         -3.1670    -0.4420     0.2180 ca         1 Q2S      -0.102800
      7 C13         -1.8610    -0.9440     0.2390 ca         1 Q2S      -0.068000
      8 C14          1.6950     0.2960     0.2030 ca         1 Q2S      -0.071000
      9 C2           3.3100    -1.4900    -0.1360 ca         1 Q2S      -0.078000
     10 C3           2.2650    -2.3610    -0.4800 ca         1 Q2S      -0.151000
     11 C4           0.9380    -1.9080    -0.4830 ca         1 Q2S      -0.124000
     12 C5           0.6250    -0.5690    -0.1440 cp         1 Q2S      -0.084000
     13 C6          -0.7930    -0.0840    -0.1480 cp         1 Q2S      -0.025000
     14 C7          -1.1140     1.2540    -0.5420 ca         1 Q2S      -0.071000
     15 C8          -2.4460     1.7240    -0.5500 ca         1 Q2S      -0.144000
     16 C9          -3.4540     0.8370    -0.1590 ca         1 Q2S      -0.057200
     17 O1           3.8930     1.9580     0.8710 o          1 Q2S      -0.721500
     18 H5          -5.2880     1.9170    -0.3070 hn         1 Q2S       0.338000
     19 H6          -6.5410    -0.2160     0.5120 h4         1 Q2S       0.197000
     20 H7          -4.5680    -2.0650     0.8910 ha         1 Q2S       0.196000
     21 H8          -1.6730    -1.9660     0.5580 ha         1 Q2S       0.115000
     22 H9           1.4730     1.3220     0.4830 ha         1 Q2S       0.129000
     23 H            4.3320    -1.8640    -0.1400 ha         1 Q2S       0.126000
     24 H1           2.4850    -3.3920    -0.7480 ha         1 Q2S       0.085000
     25 H2           0.1470    -2.5980    -0.7660 ha         1 Q2S       0.085000
     26 H3          -0.3210     1.9280    -0.8570 ha         1 Q2S       0.126000
     27 H4          -2.6790     2.7420    -0.8540 ha         1 Q2S       0.104000
     28 C            4.1680     0.8000     0.5900 c          1 Q2S       0.713600
@<TRIPOS>BOND
     1     1     4 1   
     2     1    16 1   
     3     1    18 1   
     4     2    28 1   
     5     3     8 ar  
     6     3     9 ar  
     7     3    28 1   
     8     4     5 2   
     9     4    19 1   
    10     5     6 1   
    11     5    20 1   
    12     6     7 ar  
    13     6    16 ar  
    14     7    13 ar  
    15     7    21 1   
    16     8    12 ar  
    17     8    22 1   
    18     9    10 ar  
    19     9    23 1   
    20    10    11 ar  
    21    10    24 1   
    22    11    12 ar  
    23    11    25 1   
    24    12    13 1   
    25    13    14 ar  
    26    14    15 ar  
    27    14    26 1   
    28    15    16 ar  
    29    15    27 1   
    30    17    28 1   
@<TRIPOS>SUBSTRUCTURE
     1 Q2S         1 TEMP              0 ****  ****    0 ROOT
