@<TRIPOS>MOLECULE
Q2S
   28    30     1     0     0
SMALL
bcc


@<TRIPOS>ATOM
      1 N           -4.7570     1.0350    -0.0850 na         1 Q2S      -0.180400
      2 O            5.2430     0.3450     0.6280 o          1 Q2S      -0.826800
      3 C1           2.9700    -0.1490     0.2230 ca         1 Q2S      -0.139600
      4 C10         -5.3490    -0.0990     0.3940 cc         1 Q2S      -0.137100
      5 C11         -4.4000    -1.0540     0.6210 cd         1 Q2S      -0.188200
      6 C12         -3.1430    -0.4770     0.2580 ca         1 Q2S      -0.102800
      7 C13         -1.8240    -0.9390     0.2620 ca         1 Q2S      -0.086000
      8 C14          1.6450     0.2750     0.2130 ca         1 Q2S      -0.089000
      9 C2           3.2570    -1.4580    -0.1550 ca         1 Q2S      -0.096000
     10 C3           2.2340    -2.3190    -0.5290 ca         1 Q2S      -0.169000
     11 C4           0.9170    -1.8830    -0.5340 ca         1 Q2S      -0.142000
     12 C5           0.6030    -0.5740    -0.1610 cp         1 Q2S      -0.084000
     13 C6          -0.7990    -0.1030    -0.1580 cp         1 Q2S      -0.025000
     14 C7          -1.1030     1.2080    -0.5860 ca         1 Q2S      -0.089000
     15 C8          -2.3950     1.6920    -0.6040 ca         1 Q2S      -0.162000
     16 C9          -3.4110     0.8390    -0.1790 ca         1 Q2S      -0.057200
     17 O1           3.7400     1.9460     1.0000 o          1 Q2S      -0.826800
     18 H5          -5.2460     1.8800    -0.3300 hn         1 Q2S       0.287700
     19 H6          -6.4170    -0.1390     0.5370 h4         1 Q2S       0.147000
     20 H7          -4.5780    -2.0480     1.0000 ha         1 Q2S       0.146000
     21 H8          -1.6030    -1.9390     0.6150 ha         1 Q2S       0.133000
     22 H9           1.4240     1.2870     0.5260 ha         1 Q2S       0.147000
     23 H            4.2820    -1.8020    -0.1560 ha         1 Q2S       0.144000
     24 H1           2.4630    -3.3340    -0.8290 ha         1 Q2S       0.103000
     25 H2           0.1320    -2.5590    -0.8490 ha         1 Q2S       0.103000
     26 H3          -0.3020     1.8500    -0.9300 ha         1 Q2S       0.144000
     27 H4          -2.6080     2.6970    -0.9450 ha         1 Q2S       0.122000
     28 C            4.0840     0.7990     0.6550 c          1 Q2S       0.924200
@<TRIPOS>BOND
     1     1     4 1   
     2     1    16 1   
     3     1    18 1   
     4     2    28 1   
     5     3     8 ar  
     6     3     9 ar  
     7     3    28 1   
     8     4     5 2   
     9     4    19 1   
    10     5     6 1   
    11     5    20 1   
    12     6     7 ar  
    13     6    16 ar  
    14     7    13 ar  
    15     7    21 1   
    16     8    12 ar  
    17     8    22 1   
    18     9    10 ar  
    19     9    23 1   
    20    10    11 ar  
    21    10    24 1   
    22    11    12 ar  
    23    11    25 1   
    24    12    13 1   
    25    13    14 ar  
    26    14    15 ar  
    27    14    26 1   
    28    15    16 ar  
    29    15    27 1   
    30    17    28 1   
@<TRIPOS>SUBSTRUCTURE
     1 Q2S         1 TEMP              0 ****  ****    0 ROOT
