@<TRIPOS>MOLECULE
Q2T
   60    64     1     0     0
SMALL
bcc


@<TRIPOS>ATOM
      1 C32          6.9150    -0.9020     1.1850 c3         1 Q2T      -0.090100
      2 C31          6.1840    -0.1010     0.1170 c3         1 Q2T      -0.071400
      3 C30          4.7690     0.2670     0.5470 c3         1 Q2T      -0.087400
      4 C29          4.0370     1.0400    -0.5280 c3         1 Q2T       0.141400
      5 O28          2.7400     1.3640    -0.0360 os         1 Q2T      -0.321900
      6 C26          1.8380     1.8950    -0.8690 ca         1 Q2T       0.027800
      7 C25          2.1100     2.3480    -2.1630 ca         1 Q2T       0.334200
      8 N24          1.1750     2.8620    -2.9510 nb         1 Q2T      -0.638000
      9 C23         -0.0700     2.9410    -2.5160 ca         1 Q2T       0.405200
     10 C27          0.5320     2.0020    -0.4030 ca         1 Q2T      -0.121000
     11 C22         -0.4430     2.5110    -1.2450 ca         1 Q2T      -0.189200
     12 C9          -1.8340     2.6370    -0.8070 cc         1 Q2T       0.388400
     13 N8          -2.4920     3.7700    -0.7790 nd         1 Q2T      -0.351700
     14 N7          -3.7040     3.5630    -0.2480 nd         1 Q2T      -0.064000
     15 C1          -3.7860     2.2910     0.0470 cc         1 Q2T      -0.183600
     16 C6          -4.8410     1.5650     0.6980 cc         1 Q2T       0.501600
     17 C14         -6.0750     2.2980     1.0940 c3         1 Q2T      -0.146400
     18 N5          -4.7050     0.3100     0.9490 nd         1 Q2T      -0.657000
     19 N2          -2.6330     1.6500    -0.3060 na         1 Q2T      -0.074200
     20 C3          -2.5140     0.2700    -0.1490 ca         1 Q2T      -0.064600
     21 C13         -1.4510    -0.4780    -0.6430 ca         1 Q2T      -0.135000
     22 C12         -1.3700    -1.8330    -0.3860 ca         1 Q2T      -0.056300
     23 C11         -2.3840    -2.4520     0.3540 ca         1 Q2T      -0.108000
     24 C10         -3.4730    -1.7280     0.7840 ca         1 Q2T      -0.145300
     25 C4          -3.5690    -0.3530     0.5350 ca         1 Q2T       0.368600
     26 C15         -0.1840    -2.6160    -0.8750 c3         1 Q2T       0.207100
     27 N16          0.6680    -3.0450     0.2180 n3         1 Q2T      -0.709600
     28 C21          1.7120    -3.9330    -0.2660 c6         1 Q2T       0.121800
     29 C20          2.5950    -4.3830     0.8810 c6         1 Q2T       0.128900
     30 O19          3.1670    -3.2840     1.5550 os         1 Q2T      -0.404600
     31 C18          2.1590    -2.4250     2.0400 c6         1 Q2T       0.128900
     32 C17          1.2610    -1.9240     0.9260 c6         1 Q2T       0.121800
     33 H321         7.9180    -1.1780     0.8580 hc         1 Q2T       0.037367
     34 H322         7.0120    -0.3310     2.1100 hc         1 Q2T       0.037367
     35 H323         6.3770    -1.8220     1.4210 hc         1 Q2T       0.037367
     36 H311         6.7470     0.8070    -0.1140 hc         1 Q2T       0.037700
     37 H312         6.1440    -0.6800    -0.8100 hc         1 Q2T       0.037700
     38 H301         4.2170    -0.6480     0.7780 hc         1 Q2T       0.059700
     39 H302         4.8050     0.8610     1.4650 hc         1 Q2T       0.059700
     40 H291         4.5820     1.9550    -0.7850 h1         1 Q2T       0.037200
     41 H292         3.9530     0.4350    -1.4390 h1         1 Q2T       0.037200
     42 H25          3.1100     2.3000    -2.5760 h4         1 Q2T       0.026100
     43 H27          0.2930     1.6700     0.6010 ha         1 Q2T       0.158000
     44 H23         -0.8090     3.3510    -3.1950 h4         1 Q2T       0.040100
     45 H141        -6.5630     2.7300     0.2190 hc         1 Q2T       0.067367
     46 H142        -6.7690     1.6270     1.5910 hc         1 Q2T       0.067367
     47 H143        -5.8360     3.1240     1.7650 hc         1 Q2T       0.067367
     48 H13         -0.6750    -0.0170    -1.2340 ha         1 Q2T       0.151000
     49 H11         -2.3220    -3.5110     0.5680 ha         1 Q2T       0.151000
     50 H151        -0.5320    -3.5100    -1.4010 h1         1 Q2T       0.044200
     51 H152         0.3710    -2.0100    -1.6110 h1         1 Q2T       0.044200
     52 H10         -4.2810    -2.2070     1.3210 ha         1 Q2T       0.157000
     53 H211         1.2550    -4.8100    -0.7310 h1         1 Q2T       0.044200
     54 H212         2.3350    -3.4440    -1.0360 h1         1 Q2T       0.044200
     55 H171         1.8350    -1.2730     0.2440 h1         1 Q2T       0.044200
     56 H172         0.4780    -1.3080     1.3740 h1         1 Q2T       0.044200
     57 H201         2.0050    -4.9950     1.5780 h1         1 Q2T       0.053200
     58 H202         3.4130    -4.9980     0.5030 h1         1 Q2T       0.053200
     59 H181         1.5470    -2.9400     2.7940 h1         1 Q2T       0.053200
     60 H182         2.6520    -1.5820     2.5270 h1         1 Q2T       0.053200
@<TRIPOS>BOND
     1     1     2 1   
     2     1    33 1   
     3     1    34 1   
     4     1    35 1   
     5     2     3 1   
     6     2    36 1   
     7     2    37 1   
     8     3     4 1   
     9     3    38 1   
    10     3    39 1   
    11     4     5 1   
    12     4    40 1   
    13     4    41 1   
    14     5     6 1   
    15     6     7 ar  
    16     6    10 ar  
    17     7     8 ar  
    18     7    42 1   
    19     8     9 ar  
    20     9    11 ar  
    21     9    44 1   
    22    10    11 ar  
    23    10    43 1   
    24    11    12 1   
    25    12    13 2   
    26    12    19 1   
    27    13    14 1   
    28    14    15 2   
    29    15    16 1   
    30    15    19 1   
    31    16    17 1   
    32    16    18 2   
    33    17    45 1   
    34    17    46 1   
    35    17    47 1   
    36    18    25 1   
    37    19    20 1   
    38    20    21 ar  
    39    20    25 ar  
    40    21    22 ar  
    41    21    48 1   
    42    22    23 ar  
    43    22    26 1   
    44    23    24 ar  
    45    23    49 1   
    46    24    25 ar  
    47    24    52 1   
    48    26    27 1   
    49    26    50 1   
    50    26    51 1   
    51    27    28 1   
    52    27    32 1   
    53    28    29 1   
    54    28    53 1   
    55    28    54 1   
    56    29    30 1   
    57    29    57 1   
    58    29    58 1   
    59    30    31 1   
    60    31    32 1   
    61    31    59 1   
    62    31    60 1   
    63    32    55 1   
    64    32    56 1   
@<TRIPOS>SUBSTRUCTURE
     1 Q2T         1 TEMP              0 ****  ****    0 ROOT
