@<TRIPOS>MOLECULE
Q2T
   60    64     1     0     0
SMALL
No Charge or Current Charge


@<TRIPOS>ATOM
      1 C32          7.0170    -0.7110     1.5000 c3         1 Q2T      -0.090100
      2 C31          6.3230     0.1270     0.4090 c3         1 Q2T      -0.071400
      3 C30          4.7980     0.2470     0.6200 c3         1 Q2T      -0.087400
      4 C29          4.0990     1.0690    -0.4780 c3         1 Q2T       0.164600
      5 O28          2.7050     1.1510    -0.1390 os         1 Q2T      -0.345100
      6 C26          1.7920     1.7770    -0.9680 ca         1 Q2T       0.093100
      7 C25          2.1490     2.3780    -2.2020 ca         1 Q2T       0.268900
      8 N24          1.2550     3.0000    -3.0090 nb         1 Q2T      -0.638000
      9 C23         -0.0400     3.0270    -2.6140 ca         1 Q2T       0.339900
     10 C27          0.4460     1.8190    -0.5700 ca         1 Q2T      -0.103000
     11 C22         -0.5020     2.4210    -1.4290 ca         1 Q2T      -0.123900
     12 C9          -1.9100     2.5600    -1.0590 cc         1 Q2T       0.388400
     13 N8          -2.5990     3.6880    -1.1900 nd         1 Q2T      -0.351700
     14 N7          -3.8130     3.5480    -0.5360 nd         1 Q2T      -0.064000
     15 C1          -3.8510     2.3300    -0.0280 cc         1 Q2T      -0.169000
     16 C6          -4.8130     1.6740     0.8130 cc         1 Q2T       0.436300
     17 C14         -6.0170     2.4660     1.2380 c3         1 Q2T      -0.146400
     18 N5          -4.7010     0.4170     1.2570 nd         1 Q2T      -0.657000
     19 N2          -2.7290     1.6700    -0.3910 na         1 Q2T       0.027200
     20 C3          -2.5990     0.3070    -0.1200 ca         1 Q2T      -0.050000
     21 C13         -1.6100    -0.5160    -0.7060 ca         1 Q2T      -0.117000
     22 C12         -1.4990    -1.8720    -0.3480 ca         1 Q2T      -0.056300
     23 C11         -2.4130    -2.4190     0.5660 ca         1 Q2T      -0.090000
     24 C10         -3.4470    -1.6280     1.0900 ca         1 Q2T      -0.062000
     25 C4          -3.5720    -0.2700     0.7430 ca         1 Q2T       0.238000
     26 C15         -0.3840    -2.7380    -0.9260 c3         1 Q2T       0.207100
     27 N16          0.6080    -3.1580     0.0930 n3         1 Q2T      -0.709600
     28 C21          1.6140    -4.1270    -0.4400 c6         1 Q2T       0.121800
     29 C20          2.6220    -4.5740     0.6600 c6         1 Q2T       0.152100
     30 O19          3.2530    -3.4200     1.2660 os         1 Q2T      -0.451000
     31 C18          2.2970    -2.5050     1.8520 c6         1 Q2T       0.152100
     32 C17          1.2910    -2.0110     0.7720 c6         1 Q2T       0.121800
     33 H321         8.0950    -0.7720     1.3080 hc         1 Q2T       0.037367
     34 H322         6.8690    -0.2610     2.4880 hc         1 Q2T       0.037367
     35 H323         6.6140    -1.7310     1.5200 hc         1 Q2T       0.037367
     36 H311         6.7690     1.1290     0.3900 hc         1 Q2T       0.037700
     37 H312         6.5200    -0.3290    -0.5700 hc         1 Q2T       0.037700
     38 H301         4.3610    -0.7570     0.6410 hc         1 Q2T       0.059700
     39 H302         4.6020     0.7100     1.5960 hc         1 Q2T       0.059700
     40 H291         4.5440     2.0710    -0.5300 h1         1 Q2T       0.037200
     41 H292         4.2360     0.5700    -1.4460 h1         1 Q2T       0.037200
     42 H25          3.1780     2.3760    -2.5590 h4         1 Q2T       0.026100
     43 H27          0.1500     1.3910     0.3850 ha         1 Q2T       0.140000
     44 H23         -0.7320     3.5400    -3.2820 h4         1 Q2T       0.040100
     45 H141        -6.5870     2.8000     0.3630 hc         1 Q2T       0.067367
     46 H142        -6.6890     1.8740     1.8700 hc         1 Q2T       0.067367
     47 H143        -5.7140     3.3520     1.8070 hc         1 Q2T       0.067367
     48 H13         -0.9220    -0.1270    -1.4490 ha         1 Q2T       0.133000
     49 H11         -2.3310    -3.4650     0.8550 ha         1 Q2T       0.133000
     50 H151        -0.8450    -3.6250    -1.3820 h1         1 Q2T       0.044200
     51 H152         0.1200    -2.1910    -1.7360 h1         1 Q2T       0.044200
     52 H10         -4.1720    -2.0760     1.7640 ha         1 Q2T       0.139000
     53 H211         1.1110    -5.0190    -0.8410 h1         1 Q2T       0.044200
     54 H212         2.1770    -3.6740    -1.2700 h1         1 Q2T       0.044200
     55 H171         1.8350    -1.4020     0.0350 h1         1 Q2T       0.044200
     56 H172         0.5580    -1.3510     1.2570 h1         1 Q2T       0.044200
     57 H201         2.0980    -5.1500     1.4370 h1         1 Q2T       0.053200
     58 H202         3.3960    -5.2190     0.2200 h1         1 Q2T       0.053200
     59 H181         1.7550    -3.0160     2.6620 h1         1 Q2T       0.053200
     60 H182         2.8320    -1.6500     2.2870 h1         1 Q2T       0.053200
@<TRIPOS>BOND
     1     1     2 1   
     2     1    33 1   
     3     1    34 1   
     4     1    35 1   
     5     2     3 1   
     6     2    36 1   
     7     2    37 1   
     8     3     4 1   
     9     3    38 1   
    10     3    39 1   
    11     4     5 1   
    12     4    40 1   
    13     4    41 1   
    14     5     6 1   
    15     6     7 ar  
    16     6    10 ar  
    17     7     8 ar  
    18     7    42 1   
    19     8     9 ar  
    20     9    11 ar  
    21     9    44 1   
    22    10    11 ar  
    23    10    43 1   
    24    11    12 1   
    25    12    13 2   
    26    12    19 1   
    27    13    14 1   
    28    14    15 2   
    29    15    16 1   
    30    15    19 1   
    31    16    17 1   
    32    16    18 2   
    33    17    45 1   
    34    17    46 1   
    35    17    47 1   
    36    18    25 1   
    37    19    20 1   
    38    20    21 ar  
    39    20    25 ar  
    40    21    22 ar  
    41    21    48 1   
    42    22    23 ar  
    43    22    26 1   
    44    23    24 ar  
    45    23    49 1   
    46    24    25 ar  
    47    24    52 1   
    48    26    27 1   
    49    26    50 1   
    50    26    51 1   
    51    27    28 1   
    52    27    32 1   
    53    28    29 1   
    54    28    53 1   
    55    28    54 1   
    56    29    30 1   
    57    29    57 1   
    58    29    58 1   
    59    30    31 1   
    60    31    32 1   
    61    31    59 1   
    62    31    60 1   
    63    32    55 1   
    64    32    56 1   
@<TRIPOS>SUBSTRUCTURE
     1 Q2T         1 TEMP              0 ****  ****    0 ROOT
