@<TRIPOS>MOLECULE
Q2U
   43    45     1     0     0
SMALL
abcg2


@<TRIPOS>ATOM
      1 N1           5.0140     2.5350    19.4330 ns         1 Q2U      -0.373100
      2 C4          13.0620    -1.8420    21.5820 ca         1 Q2U      -0.109000
      3 C5          11.7480    -2.0070    22.0270 ca         1 Q2U      -0.163000
      4 C6          11.0460    -0.9330    22.5580 ca         1 Q2U       0.109100
      5 C7           9.0220    -2.1930    22.7850 c3         1 Q2U       0.133600
      6 C8           7.6050    -1.9430    23.2650 c3         1 Q2U       0.107000
      7 C10          5.8600     0.2630    20.7270 cc         1 Q2U      -0.035400
      8 C13          4.0820     1.5470    19.6630 ca         1 Q2U       0.099600
      9 C15          1.8270     0.7280    19.5060 ca         1 Q2U      -0.053000
     10 C17          3.5120    -0.6270    20.5660 ca         1 Q2U      -0.037000
     11 C12          6.3340     2.4910    19.8100 c          1 Q2U       0.557200
     12 C11          6.7310     1.2740    20.4940 cd         1 Q2U      -0.270200
     13 C18          4.4810     0.3630    20.3200 ca         1 Q2U      -0.114800
     14 C16          2.2040    -0.4490    20.1660 ca         1 Q2U      -0.148000
     15 C14          2.7530     1.7200    19.2550 ca         1 Q2U      -0.170000
     16 C9           6.3650    -1.0060    21.3620 c          1 Q2U       0.599300
     17 O2           6.2400    -2.0900    20.7940 o          1 Q2U      -0.598100
     18 N            6.9570    -0.8510    22.5570 ns         1 Q2U      -0.490900
     19 O1           9.7700    -1.0010    23.0260 os         1 Q2U      -0.346100
     20 C1          11.6650     0.3340    22.6430 ca         1 Q2U       0.111100
     21 O           10.9030     1.3320    23.1660 os         1 Q2U      -0.336100
     22 C           11.4760     2.6340    23.2570 c3         1 Q2U       0.146900
     23 C3          13.6710    -0.6020    21.6690 ca         1 Q2U      -0.106000
     24 C2          12.9730     0.4860    22.1990 ca         1 Q2U      -0.165000
     25 H1           4.7170     3.3770    18.9550 hn         1 Q2U       0.329500
     26 H3          11.2800    -2.9790    21.9600 ha         1 Q2U       0.118000
     27 H4           9.4510    -3.0340    23.3370 h1         1 Q2U       0.049700
     28 H5           9.0320    -2.4270    21.7180 h1         1 Q2U       0.049700
     29 H6           7.6070    -1.6980    24.3260 h1         1 Q2U       0.069200
     30 H7           7.0230    -2.8530    23.1210 h1         1 Q2U       0.069200
     31 H8           0.8010     0.8650    19.1900 ha         1 Q2U       0.118000
     32 H9           3.8080    -1.5370    21.0680 ha         1 Q2U       0.134000
     33 H10          7.7680     1.2090    20.7960 ha         1 Q2U       0.220000
     34 H11          1.4690    -1.2190    20.3610 ha         1 Q2U       0.122000
     35 H12          2.4680     2.6350    18.7510 ha         1 Q2U       0.120000
     36 H13          7.0500     0.0800    22.9320 hn         1 Q2U       0.332500
     37 H14         10.7030     3.2700    23.6810 h1         1 Q2U       0.041700
     38 H15         12.3520     2.6340    23.9110 h1         1 Q2U       0.041700
     39 H16         11.7590     3.0090    22.2700 h1         1 Q2U       0.041700
     40 H17         14.6880    -0.4640    21.3270 ha         1 Q2U       0.115000
     41 H18         13.4560     1.4500    22.2580 ha         1 Q2U       0.119000
     42 O3           7.0960     3.4330    19.5670 o          1 Q2U      -0.553000
     43 H2          13.5950    -2.6900    21.1720 ha         1 Q2U       0.115000
@<TRIPOS>BOND
     1     1     8 1   
     2     1    11 1   
     3     1    25 1   
     4     2     3 ar  
     5     2    23 ar  
     6     2    43 1   
     7     3     4 ar  
     8     3    26 1   
     9     4    19 1   
    10     4    20 ar  
    11     5     6 1   
    12     5    19 1   
    13     5    27 1   
    14     5    28 1   
    15     6    18 1   
    16     6    29 1   
    17     6    30 1   
    18     7    12 2   
    19     7    13 1   
    20     7    16 1   
    21     8    13 ar  
    22     8    15 ar  
    23     9    14 ar  
    24     9    15 ar  
    25     9    31 1   
    26    10    13 ar  
    27    10    14 ar  
    28    10    32 1   
    29    11    12 1   
    30    11    42 2   
    31    12    33 1   
    32    14    34 1   
    33    15    35 1   
    34    16    17 2   
    35    16    18 1   
    36    18    36 1   
    37    20    21 1   
    38    20    24 ar  
    39    21    22 1   
    40    22    37 1   
    41    22    38 1   
    42    22    39 1   
    43    23    24 ar  
    44    23    40 1   
    45    24    41 1   
@<TRIPOS>SUBSTRUCTURE
     1 Q2U         1 TEMP              0 ****  ****    0 ROOT
