@<TRIPOS>MOLECULE
Q2U
   43    45     1     0     0
SMALL
No Charge or Current Charge


@<TRIPOS>ATOM
      1 N1           4.3500     2.7760    20.5130 ns         1 Q2U      -0.373100
      2 C4          12.6900    -2.2440    21.1460 ca         1 Q2U      -0.109000
      3 C5          11.4740    -2.2030    21.8470 ca         1 Q2U      -0.163000
      4 C6          10.9810    -0.9750    22.3460 ca         1 Q2U       0.109100
      5 C7           8.9480    -2.0480    23.2730 c3         1 Q2U       0.133600
      6 C8           7.6940    -1.5830    24.0470 c3         1 Q2U       0.107000
      7 C10          5.4750     0.3960    21.5860 cc         1 Q2U      -0.035400
      8 C13          4.0370     1.5730    19.8820 ca         1 Q2U       0.099600
      9 C15          2.8590     0.4070    18.1040 ca         1 Q2U      -0.053000
     10 C17          4.2250    -0.8280    19.7000 ca         1 Q2U      -0.037000
     11 C12          5.1470     2.9360    21.6010 c          1 Q2U       0.557200
     12 C11          5.7050     1.6760    22.1180 cd         1 Q2U      -0.270200
     13 C18          4.5780     0.3660    20.3850 ca         1 Q2U      -0.114800
     14 C16          3.3790    -0.8030    18.5770 ca         1 Q2U      -0.148000
     15 C14          3.1920     1.5980    18.7610 ca         1 Q2U      -0.170000
     16 C9           6.1170    -0.8220    22.2230 c          1 Q2U       0.599300
     17 O2           5.9800    -1.9750    21.8430 o          1 Q2U      -0.598100
     18 N            6.9120    -0.5660    23.3240 ns         1 Q2U      -0.490900
     19 O1           9.7850    -0.8980    23.0400 os         1 Q2U      -0.346100
     20 C1          11.7210     0.2150    22.1350 ca         1 Q2U       0.111100
     21 O           11.2190     1.4080    22.6320 os         1 Q2U      -0.336100
     22 C           11.8990     2.6640    22.4610 c3         1 Q2U       0.146900
     23 C3          13.4240    -1.0660    20.9370 ca         1 Q2U      -0.106000
     24 C2          12.9450     0.1610    21.4280 ca         1 Q2U      -0.165000
     25 H1           3.9480     3.6200    20.1290 hn         1 Q2U       0.329500
     26 H3          10.9300    -3.1320    21.9920 ha         1 Q2U       0.118000
     27 H4           9.4790    -2.8010    23.8690 h1         1 Q2U       0.049700
     28 H5           8.6430    -2.5060    22.3240 h1         1 Q2U       0.049700
     29 H6           8.0040    -1.1680    25.0150 h1         1 Q2U       0.069200
     30 H7           7.0530    -2.4510    24.2490 h1         1 Q2U       0.069200
     31 H8           2.2050     0.4230    17.2350 ha         1 Q2U       0.118000
     32 H9           4.5880    -1.8000    20.0070 ha         1 Q2U       0.134000
     33 H10          6.3290     1.8620    22.9800 ha         1 Q2U       0.220000
     34 H11          3.1250    -1.7330    18.0720 ha         1 Q2U       0.122000
     35 H12          2.7910     2.5410    18.3960 ha         1 Q2U       0.120000
     36 H13          7.0210     0.3980    23.6040 hn         1 Q2U       0.332500
     37 H14         11.3250     3.4730    22.9300 h1         1 Q2U       0.041700
     38 H15         12.8920     2.6370    22.9280 h1         1 Q2U       0.041700
     39 H16         12.0150     2.9040    21.3970 h1         1 Q2U       0.041700
     40 H17         14.3660    -1.1030    20.3930 ha         1 Q2U       0.115000
     41 H18         13.5360     1.0540    21.2490 ha         1 Q2U       0.119000
     42 O3           5.3690     4.0310    22.0900 o          1 Q2U      -0.553000
     43 H2          13.0660    -3.1910    20.7630 ha         1 Q2U       0.115000
@<TRIPOS>BOND
     1     1     8 1   
     2     1    11 1   
     3     1    25 1   
     4     2     3 ar  
     5     2    23 ar  
     6     2    43 1   
     7     3     4 ar  
     8     3    26 1   
     9     4    19 1   
    10     4    20 ar  
    11     5     6 1   
    12     5    19 1   
    13     5    27 1   
    14     5    28 1   
    15     6    18 1   
    16     6    29 1   
    17     6    30 1   
    18     7    12 2   
    19     7    13 1   
    20     7    16 1   
    21     8    13 ar  
    22     8    15 ar  
    23     9    14 ar  
    24     9    15 ar  
    25     9    31 1   
    26    10    13 ar  
    27    10    14 ar  
    28    10    32 1   
    29    11    12 1   
    30    11    42 2   
    31    12    33 1   
    32    14    34 1   
    33    15    35 1   
    34    16    17 2   
    35    16    18 1   
    36    18    36 1   
    37    20    21 1   
    38    20    24 ar  
    39    21    22 1   
    40    22    37 1   
    41    22    38 1   
    42    22    39 1   
    43    23    24 ar  
    44    23    40 1   
    45    24    41 1   
@<TRIPOS>SUBSTRUCTURE
     1 Q2U         1 TEMP              0 ****  ****    0 ROOT
