@<TRIPOS>MOLECULE
Q2V
   87    92     1     0     0
SMALL
No Charge or Current Charge


@<TRIPOS>ATOM
      1 N1         266.5830   -90.2620   212.0540 nb         1 Q2V      -0.314000
      2 C2         265.8780   -90.5780   214.7050 ca         1 Q2V       0.110500
      3 C3         265.6330   -89.3820   214.0740 ca         1 Q2V      -0.091600
      4 O4         266.2000   -91.1420   218.1240 os         1 Q2V      -0.400000
      5 C6         265.4820   -92.9280   216.7630 c5         1 Q2V       0.141300
      6 C8         267.4320   -91.8590   217.8540 c5         1 Q2V       0.121300
      7 C9         268.5080   -90.9310   217.2010 c3         1 Q2V       0.204800
      8 C10        269.5750   -90.1470   219.3160 c3         1 Q2V       0.200800
      9 C11        268.6490   -89.9420   220.5230 cy         1 Q2V      -0.107700
     10 C12        268.3100   -88.4830   220.9740 cy         1 Q2V       0.142300
     11 C16        266.0670   -85.3940   225.0690 ca         1 Q2V      -0.061300
     12 C17        264.7170   -85.8020   225.0010 ca         1 Q2V      -0.101500
     13 C18        263.6800   -84.8580   225.0900 ca         1 Q2V      -0.120000
     14 C19        263.9790   -83.4960   225.2530 ca         1 Q2V      -0.125500
     15 C20        265.3180   -83.0790   225.3300 ca         1 Q2V      -0.120000
     16 C21        266.3560   -84.0230   225.2400 ca         1 Q2V      -0.101500
     17 C22        267.3310   -87.1920   226.2990 ca         1 Q2V      -0.061300
     18 C23        268.2450   -86.7560   227.2810 ca         1 Q2V      -0.101500
     19 C24        268.3720   -87.4480   228.4980 ca         1 Q2V      -0.120000
     20 C25        267.5840   -88.5820   228.7480 ca         1 Q2V      -0.125500
     21 C26        266.6650   -89.0210   227.7820 ca         1 Q2V      -0.120000
     22 C27        266.5360   -88.3290   226.5650 ca         1 Q2V      -0.101500
     23 C28        269.2720   -90.0550   221.9550 cy         1 Q2V       0.142300
     24 C30        270.0750   -87.4380   217.7900 c3         1 Q2V      -0.048400
     25 C32        268.9700   -85.3570   218.8550 c          1 Q2V       0.693000
     26 O2         268.0400   -85.1670   219.6270 o          1 Q2V      -0.743000
     27 C31        268.8280   -86.5100   217.7780 c3         1 Q2V       0.016500
     28 N7         268.5190   -86.0490   216.3710 n8         1 Q2V      -1.007200
     29 N5         268.9760   -89.7620   218.0060 n3         1 Q2V      -0.751600
     30 C7         267.0300   -93.0900   216.9590 c5         1 Q2V       0.086300
     31 O1         267.3140   -94.3620   217.5860 oh         1 Q2V      -0.719000
     32 O          264.8400   -93.7870   217.7130 oh         1 Q2V      -0.705000
     33 C5         265.2590   -91.4080   217.0650 c5         1 Q2V       0.315300
     34 N4         265.4140   -90.4150   215.9890 na         1 Q2V      -0.305300
     35 N2         266.4580   -91.6110   214.0610 nb         1 Q2V      -0.215000
     36 C1         266.7830   -91.3980   212.7630 ca         1 Q2V       0.168900
     37 C4         264.9060   -89.1150   216.0810 cc         1 Q2V       0.442700
     38 N3         265.0180   -88.4510   214.9150 nd         1 Q2V      -0.574100
     39 C          266.0070   -89.2490   212.7190 ca         1 Q2V       0.444900
     40 N          265.7960   -88.1120   212.0050 nv         1 Q2V      -1.073900
     41 N6         268.2090   -89.0830   222.3400 nq         1 Q2V      -0.715600
     42 C15        267.2110   -86.4100   224.9830 c3         1 Q2V       0.015900
     43 H1         265.1670   -93.1900   215.7440 h1         1 Q2V       0.076700
     44 H3         267.8300   -92.2150   218.8120 h1         1 Q2V       0.084700
     45 H11        269.3740   -91.5580   216.9510 h1         1 Q2V       0.022700
     46 H12        268.1070   -90.5730   216.2460 h1         1 Q2V       0.022700
     47 H13        269.8840   -91.2010   219.3040 h1         1 Q2V       0.028200
     48 H14        270.4890   -89.5730   219.5150 h1         1 Q2V       0.028200
     49 H15        267.7580   -90.5670   220.3950 hc         1 Q2V       0.044700
     50 H17        269.1360   -87.7720   220.8390 h1         1 Q2V       0.058450
     51 H16        267.3850   -88.0740   220.5510 h1         1 Q2V       0.058450
     52 H23        264.4640   -86.8530   224.8830 ha         1 Q2V       0.126250
     53 H24        262.6430   -85.1830   225.0360 ha         1 Q2V       0.102750
     54 H25        263.1760   -82.7650   225.3230 ha         1 Q2V       0.098000
     55 H26        265.5520   -82.0250   225.4590 ha         1 Q2V       0.102750
     56 H27        267.3880   -83.6840   225.3050 ha         1 Q2V       0.126250
     57 H28        268.8600   -85.8760   227.1040 ha         1 Q2V       0.126250
     58 H29        269.0820   -87.1040   229.2470 ha         1 Q2V       0.102750
     59 H30        267.6820   -89.1180   229.6900 ha         1 Q2V       0.098000
     60 H31        266.0500   -89.8970   227.9760 ha         1 Q2V       0.102750
     61 H32        265.8140   -88.6840   225.8350 ha         1 Q2V       0.126250
     62 H34        269.2070   -91.0510   222.4110 h1         1 Q2V       0.058450
     63 H33        270.3000   -89.6740   222.0240 h1         1 Q2V       0.058450
     64 H38        270.4470   -87.5250   218.8160 hc         1 Q2V       0.039200
     65 H37        270.8830   -86.9550   217.2260 hc         1 Q2V       0.039200
     66 H4         267.9760   -87.1200   218.1140 h1         1 Q2V       0.058700
     67 H40        267.6480   -85.5040   216.3820 hn         1 Q2V       0.384000
     68 H42        269.2260   -85.3590   216.0910 hn         1 Q2V       0.384000
     69 H2         267.5400   -93.0340   215.9890 h1         1 Q2V       0.048700
     70 H10        268.2720   -94.5610   217.4420 ho         1 Q2V       0.516000
     71 H9         265.6190   -94.3380   218.0020 ho         1 Q2V       0.525000
     72 H          264.2370   -91.2650   217.4370 h2         1 Q2V       0.121700
     73 H7         267.2510   -92.2270   212.2360 h5         1 Q2V       0.038100
     74 H8         264.4610   -88.7320   216.9940 h5         1 Q2V       0.094800
     75 H5         265.8020   -88.1770   210.9910 hn         1 Q2V       0.502500
     76 H6         265.1760   -87.4180   212.4160 hn         1 Q2V       0.502500
     77 H20        267.0500   -86.6560   222.8380 hc         1 Q2V       0.053700
     78 H21        266.1930   -87.9000   223.7300 hc         1 Q2V       0.053700
     79 H22        268.1440   -85.8460   224.8510 hc         1 Q2V       0.098700
     80 C13        268.3190   -88.2590   223.5480 c3         1 Q2V       0.160800
     81 C29        269.8380   -88.8540   217.1990 c3         1 Q2V       0.200800
     82 H19        268.3810   -88.9260   224.4180 h1         1 Q2V       0.035200
     83 H18        269.2470   -87.6740   223.5020 h1         1 Q2V       0.035200
     84 H35        269.4060   -88.7280   216.1970 h1         1 Q2V       0.018700
     85 H36        270.8180   -89.3300   217.0540 h1         1 Q2V       0.018700
     86 O3         269.9640   -84.6420   218.8210 o          1 Q2V      -0.743000
     87 C14        267.1140   -87.3070   223.7180 c3         1 Q2V      -0.062400
@<TRIPOS>BOND
     1     1    36 ar  
     2     1    39 ar  
     3     2     3 ar  
     4     2    34 1   
     5     2    35 ar  
     6     3    38 1   
     7     3    39 ar  
     8     4     6 1   
     9     4    33 1   
    10     5    30 1   
    11     5    32 1   
    12     5    33 1   
    13     5    43 1   
    14     6     7 1   
    15     6    30 1   
    16     6    44 1   
    17     7    29 1   
    18     7    45 1   
    19     7    46 1   
    20     8     9 1   
    21     8    29 1   
    22     8    47 1   
    23     8    48 1   
    24     9    10 1   
    25     9    23 1   
    26     9    49 1   
    27    10    41 1   
    28    10    50 1   
    29    10    51 1   
    30    11    12 ar  
    31    11    16 ar  
    32    11    42 1   
    33    12    13 ar  
    34    12    52 1   
    35    13    14 ar  
    36    13    53 1   
    37    14    15 ar  
    38    14    54 1   
    39    15    16 ar  
    40    15    55 1   
    41    16    56 1   
    42    17    18 ar  
    43    17    22 ar  
    44    17    42 1   
    45    18    19 ar  
    46    18    57 1   
    47    19    20 ar  
    48    19    58 1   
    49    20    21 ar  
    50    20    59 1   
    51    21    22 ar  
    52    21    60 1   
    53    22    61 1   
    54    23    41 1   
    55    23    62 1   
    56    23    63 1   
    57    24    27 1   
    58    24    64 1   
    59    24    65 1   
    60    24    81 1   
    61    25    26 1   
    62    25    27 1   
    63    25    86 1   
    64    27    28 1   
    65    27    66 1   
    66    28    67 1   
    67    28    68 1   
    68    29    81 1   
    69    30    31 1   
    70    30    69 1   
    71    31    70 1   
    72    32    71 1   
    73    33    34 1   
    74    33    72 1   
    75    34    37 1   
    76    35    36 ar  
    77    36    73 1   
    78    37    38 2   
    79    37    74 1   
    80    39    40 1   
    81    40    75 1   
    82    40    76 1   
    83    41    80 1   
    84    42    79 1   
    85    42    87 1   
    86    77    87 1   
    87    78    87 1   
    88    80    82 1   
    89    80    83 1   
    90    80    87 1   
    91    81    84 1   
    92    81    85 1   
@<TRIPOS>SUBSTRUCTURE
     1 Q2V         1 TEMP              0 ****  ****    0 ROOT
