@<TRIPOS>MOLECULE
Q2V
   87    92     1     0     0
SMALL
bcc


@<TRIPOS>ATOM
      1 N1         263.9600   -89.2640   211.9470 nb         1 Q2V      -0.840000
      2 C2         265.2470   -89.6040   214.2330 ca         1 Q2V       0.438800
      3 C3         265.9430   -89.0180   213.1880 ca         1 Q2V      -0.222200
      4 O4         266.8890   -89.8520   217.4560 os         1 Q2V      -0.353600
      5 C6         265.6190   -91.6510   216.6430 c5         1 Q2V       0.118100
      6 C8         267.5410   -91.0490   217.8910 c5         1 Q2V       0.098100
      7 C9         269.0460   -90.8610   217.8850 c3         1 Q2V       0.204800
      8 C10        270.1130   -90.3180   220.0010 c3         1 Q2V       0.200800
      9 C11        269.0950   -90.8670   220.9820 cy         1 Q2V      -0.107700
     10 C12        267.9990   -89.8880   221.4150 cy         1 Q2V       0.142300
     11 C16        265.7910   -86.2910   224.4130 ca         1 Q2V      -0.061300
     12 C17        264.7000   -86.5830   225.2290 ca         1 Q2V      -0.119500
     13 C18        263.4980   -85.9040   225.0780 ca         1 Q2V      -0.138000
     14 C19        263.3680   -84.9180   224.1080 ca         1 Q2V      -0.143500
     15 C20        264.4470   -84.6220   223.2880 ca         1 Q2V      -0.138000
     16 C21        265.6470   -85.3060   223.4390 ca         1 Q2V      -0.119500
     17 C22        267.6080   -87.0750   225.9520 ca         1 Q2V      -0.061300
     18 C23        268.3890   -86.0150   226.4120 ca         1 Q2V      -0.119500
     19 C24        268.8520   -85.9770   227.7190 ca         1 Q2V      -0.138000
     20 C25        268.5400   -87.0070   228.5980 ca         1 Q2V      -0.143500
     21 C26        267.7660   -88.0690   228.1530 ca         1 Q2V      -0.138000
     22 C27        267.3060   -88.1030   226.8430 ca         1 Q2V      -0.119500
     23 C28        269.4920   -90.9130   222.4690 cy         1 Q2V       0.142300
     24 C30        270.0520   -87.3990   218.8930 c3         1 Q2V      -0.048400
     25 C32        268.4740   -85.6990   219.8660 c          1 Q2V       0.903600
     26 O2         268.3850   -86.0540   221.0650 o          1 Q2V      -0.848300
     27 C31        268.6270   -86.8390   218.8310 c3         1 Q2V       0.016500
     28 N7         268.3060   -86.4780   217.4560 n8         1 Q2V      -0.896800
     29 N5         269.5000   -89.8220   218.7860 n3         1 Q2V      -0.751600
     30 C7         267.0410   -92.1250   216.9240 c5         1 Q2V       0.063100
     31 O1         267.0170   -93.4240   217.4400 oh         1 Q2V      -0.596800
     32 O          264.7590   -91.9240   217.7160 oh         1 Q2V      -0.582800
     33 C5         265.8200   -90.1370   216.6140 c5         1 Q2V       0.262800
     34 N4         266.1320   -89.6570   215.2700 na         1 Q2V      -0.276000
     35 N2         263.9810   -90.0190   214.2120 nb         1 Q2V      -0.741000
     36 C1         263.4210   -89.8100   213.0340 ca         1 Q2V       0.694900
     37 C4         267.2920   -89.0970   214.8110 cc         1 Q2V       0.442700
     38 N3         267.2210   -88.7070   213.5710 nd         1 Q2V      -0.574100
     39 C          265.2320   -88.8500   211.9860 ca         1 Q2V       0.773200
     40 N          265.7720   -88.2990   210.8980 nv         1 Q2V      -0.963500
     41 N6         268.2310   -90.2480   222.8220 nq         1 Q2V      -0.715600
     42 C15        267.0990   -87.0480   224.5270 c3         1 Q2V       0.015900
     43 H1         265.2250   -92.0360   215.6950 h1         1 Q2V       0.076700
     44 H3         267.2020   -91.2850   218.9060 h1         1 Q2V       0.084700
     45 H11        269.5010   -91.8290   218.1390 h1         1 Q2V       0.022700
     46 H12        269.3690   -90.6480   216.8600 h1         1 Q2V       0.022700
     47 H13        270.8840   -91.0790   219.7920 h1         1 Q2V       0.028200
     48 H14        270.6290   -89.4860   220.4850 h1         1 Q2V       0.028200
     49 H15        268.6890   -91.8230   220.6410 hc         1 Q2V       0.044700
     50 H17        268.2670   -88.8480   221.1900 h1         1 Q2V       0.058450
     51 H16        266.9850   -90.0680   221.0500 h1         1 Q2V       0.058450
     52 H23        264.7860   -87.3460   225.9930 ha         1 Q2V       0.144250
     53 H24        262.6620   -86.1450   225.7220 ha         1 Q2V       0.120750
     54 H25        262.4320   -84.3860   223.9940 ha         1 Q2V       0.116000
     55 H26        264.3570   -83.8560   222.5280 ha         1 Q2V       0.120750
     56 H27        266.4820   -85.0810   222.7850 ha         1 Q2V       0.144250
     57 H28        268.6390   -85.2080   225.7320 ha         1 Q2V       0.144250
     58 H29        269.4600   -85.1450   228.0500 ha         1 Q2V       0.120750
     59 H30        268.9010   -86.9830   229.6180 ha         1 Q2V       0.116000
     60 H31        267.5200   -88.8800   228.8270 ha         1 Q2V       0.120750
     61 H32        266.7110   -88.9490   226.5200 ha         1 Q2V       0.144250
     62 H34        269.6390   -91.8940   222.9280 h1         1 Q2V       0.058450
     63 H33        270.3800   -90.3000   222.6800 h1         1 Q2V       0.058450
     64 H38        270.3620   -87.5000   219.9360 hc         1 Q2V       0.039200
     65 H37        270.7410   -86.6730   218.4460 hc         1 Q2V       0.039200
     66 H4         267.9470   -87.6420   219.1270 h1         1 Q2V       0.058700
     67 H40        267.3080   -86.3240   217.3790 hn         1 Q2V       0.328800
     68 H42        268.7200   -85.5700   217.2700 hn         1 Q2V       0.328800
     69 H2         267.6220   -92.0730   215.9900 h1         1 Q2V       0.048700
     70 H10        267.9170   -93.7200   217.6090 ho         1 Q2V       0.417000
     71 H9         264.8710   -92.8480   217.9690 ho         1 Q2V       0.426000
     72 H          264.9180   -89.6110   216.9430 h2         1 Q2V       0.121700
     73 H7         262.3860   -90.1210   212.9340 h5         1 Q2V       0.038100
     74 H8         268.1620   -88.9920   215.4390 h5         1 Q2V       0.094800
     75 H5         265.2300   -88.1990   210.0570 hn         1 Q2V       0.447300
     76 H6         266.7260   -87.9840   210.8930 hn         1 Q2V       0.447300
     77 H20        266.5730   -88.2600   222.8620 hc         1 Q2V       0.053700
     78 H21        266.2450   -89.0500   224.3830 hc         1 Q2V       0.053700
     79 H22        267.8340   -86.4860   223.9410 hc         1 Q2V       0.098700
     80 C13        268.3130   -89.1440   223.7470 c3         1 Q2V       0.160800
     81 C29        270.2300   -88.7280   218.1660 c3         1 Q2V       0.200800
     82 H19        268.6360   -89.5210   224.7210 h1         1 Q2V       0.035200
     83 H18        269.0780   -88.4130   223.4250 h1         1 Q2V       0.035200
     84 H35        269.8640   -88.6050   217.1460 h1         1 Q2V       0.018700
     85 H36        271.3060   -88.9530   218.0840 h1         1 Q2V       0.018700
     86 O3         268.4760   -84.5280   219.4400 o          1 Q2V      -0.848300
     87 C14        266.9770   -88.4240   223.8660 c3         1 Q2V      -0.062400
@<TRIPOS>BOND
     1     1    36 ar  
     2     1    39 ar  
     3     2     3 ar  
     4     2    34 1   
     5     2    35 ar  
     6     3    38 1   
     7     3    39 ar  
     8     4     6 1   
     9     4    33 1   
    10     5    30 1   
    11     5    32 1   
    12     5    33 1   
    13     5    43 1   
    14     6     7 1   
    15     6    30 1   
    16     6    44 1   
    17     7    29 1   
    18     7    45 1   
    19     7    46 1   
    20     8     9 1   
    21     8    29 1   
    22     8    47 1   
    23     8    48 1   
    24     9    10 1   
    25     9    23 1   
    26     9    49 1   
    27    10    41 1   
    28    10    50 1   
    29    10    51 1   
    30    11    12 ar  
    31    11    16 ar  
    32    11    42 1   
    33    12    13 ar  
    34    12    52 1   
    35    13    14 ar  
    36    13    53 1   
    37    14    15 ar  
    38    14    54 1   
    39    15    16 ar  
    40    15    55 1   
    41    16    56 1   
    42    17    18 ar  
    43    17    22 ar  
    44    17    42 1   
    45    18    19 ar  
    46    18    57 1   
    47    19    20 ar  
    48    19    58 1   
    49    20    21 ar  
    50    20    59 1   
    51    21    22 ar  
    52    21    60 1   
    53    22    61 1   
    54    23    41 1   
    55    23    62 1   
    56    23    63 1   
    57    24    27 1   
    58    24    64 1   
    59    24    65 1   
    60    24    81 1   
    61    25    26 1   
    62    25    27 1   
    63    25    86 1   
    64    27    28 1   
    65    27    66 1   
    66    28    67 1   
    67    28    68 1   
    68    29    81 1   
    69    30    31 1   
    70    30    69 1   
    71    31    70 1   
    72    32    71 1   
    73    33    34 1   
    74    33    72 1   
    75    34    37 1   
    76    35    36 ar  
    77    36    73 1   
    78    37    38 2   
    79    37    74 1   
    80    39    40 1   
    81    40    75 1   
    82    40    76 1   
    83    41    80 1   
    84    42    79 1   
    85    42    87 1   
    86    77    87 1   
    87    78    87 1   
    88    80    82 1   
    89    80    83 1   
    90    80    87 1   
    91    81    84 1   
    92    81    85 1   
@<TRIPOS>SUBSTRUCTURE
     1 Q2V         1 TEMP              0 ****  ****    0 ROOT
