@<TRIPOS>MOLECULE
Q2Y
   62    65     1     0     0
SMALL
No Charge or Current Charge


@<TRIPOS>ATOM
      1 O36          5.4870    -0.6050    -5.0870 o          1 Q2Y      -0.724000
      2 C6           5.8620    -1.7240    -5.4030 c          1 Q2Y       0.718000
      3 O35          5.1210    -2.5920    -5.8380 o          1 Q2Y      -0.724000
      4 C7           7.3490    -2.0670    -5.2410 c3         1 Q2Y      -0.231400
      5 C27          7.6280    -2.7180    -3.8580 c3         1 Q2Y       0.029700
      6 C18          9.0920    -3.2350    -3.7270 c          1 Q2Y       0.572100
      7 O32          9.9740    -2.5830    -3.1750 o          1 Q2Y      -0.571100
      8 N5           7.3210    -1.7950    -2.7440 ns         1 Q2Y      -0.453900
      9 C10          6.2360    -1.8960    -1.8980 c          1 Q2Y       0.599100
     10 O33          5.3920    -2.7760    -2.0160 o          1 Q2Y      -0.621100
     11 C9           6.2210    -0.8830    -0.7450 c3         1 Q2Y      -0.096100
     12 C12          6.9120    -1.4210     0.4830 cc         1 Q2Y      -0.162300
     13 C21          6.3590    -1.7900     1.6830 cd         1 Q2Y      -0.136000
     14 C23          7.2920    -2.3730     2.5850 cd         1 Q2Y      -0.103000
     15 C14          8.5660    -2.4520     2.0790 cc         1 Q2Y      -0.260300
     16 S37          8.6480    -1.7230     0.4780 ss         1 Q2Y       0.190000
     17 C17          9.7770    -3.0920     2.6990 c3         1 Q2Y       0.180300
     18 N3          10.4980    -3.8900     1.7110 ns         1 Q2Y      -0.505900
     19 C19         10.1430    -5.1650     1.3330 c          1 Q2Y       0.624700
     20 O34          9.3180    -5.8120     1.9620 o          1 Q2Y      -0.597100
     21 C20         10.8040    -5.7050     0.0820 ca         1 Q2Y      -0.186600
     22 C22         10.5690    -7.0450    -0.3010 ca         1 Q2Y      -0.036000
     23 C11         11.1430    -7.5660    -1.4730 ca         1 Q2Y      -0.167500
     24 C26         11.6200    -4.9000    -0.7500 ca         1 Q2Y      -0.036000
     25 C25         12.1910    -5.4330    -1.9190 ca         1 Q2Y      -0.167500
     26 C24         11.9660    -6.7700    -2.2800 ca         1 Q2Y       0.320000
     27 N2          12.5010    -7.3160    -3.4420 nu         1 Q2Y      -0.948900
     28 C13         13.6130    -7.0520    -4.2130 ca         1 Q2Y       0.575900
     29 C29         14.7300    -6.2240    -3.8730 ca         1 Q2Y       0.288900
     30 N4          15.7900    -6.0640    -4.7130 nb         1 Q2Y      -0.605000
     31 C31         15.7210    -6.7470    -5.8890 ca         1 Q2Y       0.183000
     32 C30         16.7750    -6.6330    -6.8160 ca         1 Q2Y      -0.053000
     33 C8          14.5970    -7.5910    -6.2100 ca         1 Q2Y       0.278000
     34 N1          13.5450    -7.7440    -5.3590 nb         1 Q2Y      -0.731000
     35 C16         14.5880    -8.2760    -7.4400 ca         1 Q2Y      -0.096000
     36 C28         15.6510    -8.1480    -8.3490 ca         1 Q2Y      -0.093000
     37 C15         16.7430    -7.3260    -8.0380 ca         1 Q2Y      -0.125000
     38 C1           9.3820    -4.6240    -4.2960 c3         1 Q2Y      -0.202100
     39 H71          7.9620    -1.1580    -5.2840 hc         1 Q2Y       0.034200
     40 H72          7.6320    -2.8220    -5.9840 hc         1 Q2Y       0.034200
     41 H27          6.9890    -3.6070    -3.7660 h1         1 Q2Y       0.106700
     42 HN5          7.9840    -1.0560    -2.5430 hn         1 Q2Y       0.324500
     43 H91          5.1800    -0.6400    -0.5010 hc         1 Q2Y       0.070200
     44 H92          6.7520     0.0250    -1.0540 hc         1 Q2Y       0.070200
     45 H21          5.3010    -1.6890     1.9080 ha         1 Q2Y       0.133000
     46 H23          7.0130    -2.7560     3.5620 ha         1 Q2Y       0.130000
     47 H171        10.4470    -2.3120     3.0840 h1         1 Q2Y       0.061200
     48 H172         9.4790    -3.7290     3.5420 h1         1 Q2Y       0.061200
     49 HN3         11.2190    -3.4350     1.1710 hn         1 Q2Y       0.315500
     50 H22          9.9360    -7.6880     0.3080 ha         1 Q2Y       0.136000
     51 H11         10.9490    -8.5990    -1.7490 ha         1 Q2Y       0.127500
     52 H26         11.8050    -3.8530    -0.5210 ha         1 Q2Y       0.136000
     53 H25         12.7790    -4.7820    -2.5570 ha         1 Q2Y       0.127500
     54 HN2         11.9980    -8.1160    -3.8150 hn         1 Q2Y       0.506000
     55 H29         14.7850    -5.7060    -2.9180 h4         1 Q2Y       0.042100
     56 H30         17.6270    -6.0000    -6.5820 ha         1 Q2Y       0.132000
     57 H16         13.7450    -8.9150    -7.6880 ha         1 Q2Y       0.128000
     58 H28         15.6250    -8.6860    -9.2950 ha         1 Q2Y       0.112000
     59 H15         17.5670    -7.2260    -8.7410 ha         1 Q2Y       0.115000
     60 H11A         8.7710    -5.3560    -3.7560 hc         1 Q2Y       0.057033
     61 H12          8.9870    -4.6960    -5.3150 hc         1 Q2Y       0.057033
     62 H13         10.4440    -4.8880    -4.2480 hc         1 Q2Y       0.057033
@<TRIPOS>BOND
     1     1     2 1   
     2     2     3 1   
     3     2     4 1   
     4     4     5 1   
     5     4    39 1   
     6     4    40 1   
     7     5     6 1   
     8     5     8 1   
     9     5    41 1   
    10     6     7 2   
    11     6    38 1   
    12     8     9 1   
    13     8    42 1   
    14     9    10 2   
    15     9    11 1   
    16    11    12 1   
    17    11    43 1   
    18    11    44 1   
    19    12    13 2   
    20    12    16 1   
    21    13    14 1   
    22    13    45 1   
    23    14    15 2   
    24    14    46 1   
    25    15    16 1   
    26    15    17 1   
    27    17    18 1   
    28    17    47 1   
    29    17    48 1   
    30    18    19 1   
    31    18    49 1   
    32    19    20 2   
    33    19    21 1   
    34    21    22 ar  
    35    21    24 ar  
    36    22    23 ar  
    37    22    50 1   
    38    23    26 ar  
    39    23    51 1   
    40    24    25 ar  
    41    24    52 1   
    42    25    26 ar  
    43    25    53 1   
    44    26    27 1   
    45    27    28 1   
    46    27    54 1   
    47    28    29 ar  
    48    28    34 ar  
    49    29    30 ar  
    50    29    55 1   
    51    30    31 ar  
    52    31    32 ar  
    53    31    33 ar  
    54    32    37 ar  
    55    32    56 1   
    56    33    34 ar  
    57    33    35 ar  
    58    35    36 ar  
    59    35    57 1   
    60    36    37 ar  
    61    36    58 1   
    62    37    59 1   
    63    38    60 1   
    64    38    61 1   
    65    38    62 1   
@<TRIPOS>SUBSTRUCTURE
     1 Q2Y         1 TEMP              0 ****  ****    0 ROOT
