@<TRIPOS>MOLECULE
Q2Y
   62    65     1     0     0
SMALL
bcc


@<TRIPOS>ATOM
      1 O36          7.7790     0.4080    -6.5390 o          1 Q2Y      -0.829300
      2 C6           7.4570    -0.7280    -6.1440 c          1 Q2Y       0.928600
      3 O35          6.3650    -1.3020    -6.3070 o          1 Q2Y      -0.829300
      4 C7           8.5630    -1.5220    -5.4110 c3         1 Q2Y      -0.231400
      5 C27          8.0300    -2.5210    -4.3890 c3         1 Q2Y       0.029700
      6 C18          9.1690    -3.4290    -3.9450 c          1 Q2Y       0.572100
      7 O32          9.8350    -3.1830    -2.9670 o          1 Q2Y      -0.571100
      8 N5           7.4480    -1.8220    -3.2740 ns         1 Q2Y      -0.520900
      9 C10          6.7750    -2.4700    -2.3140 c          1 Q2Y       0.666100
     10 O33          6.5630    -3.6720    -2.3520 o          1 Q2Y      -0.621100
     11 C9           6.2890    -1.6090    -1.1570 c3         1 Q2Y      -0.096100
     12 C12          6.8650    -2.0920     0.1310 cc         1 Q2Y      -0.017400
     13 C21          6.2430    -2.7140     1.1690 cd         1 Q2Y      -0.154000
     14 C23          7.1360    -3.0870     2.2140 cd         1 Q2Y      -0.121000
     15 C14          8.4260    -2.7390     1.9630 cc         1 Q2Y      -0.115400
     16 S37          8.5570    -1.9470     0.4340 ss         1 Q2Y      -0.099800
     17 C17          9.6580    -3.0280     2.7640 c3         1 Q2Y       0.180300
     18 N3          10.5850    -3.8500     2.0150 ns         1 Q2Y      -0.572900
     19 C19         10.4230    -5.1820     1.8780 c          1 Q2Y       0.691700
     20 O34          9.7250    -5.8490     2.6280 o          1 Q2Y      -0.597100
     21 C20         11.1420    -5.7950     0.7290 ca         1 Q2Y      -0.186600
     22 C22         11.6920    -7.0710     0.8400 ca         1 Q2Y      -0.054000
     23 C11         12.3070    -7.6690    -0.2410 ca         1 Q2Y      -0.185500
     24 C26         11.1710    -5.1630    -0.5110 ca         1 Q2Y      -0.054000
     25 C25         11.7400    -5.7760    -1.6120 ca         1 Q2Y      -0.185500
     26 C24         12.3420    -7.0280    -1.4850 ca         1 Q2Y       0.181600
     27 N2          12.9220    -7.6980    -2.5540 nu         1 Q2Y      -0.755300
     28 C13         13.4180    -7.1840    -3.7200 ca         1 Q2Y       0.575900
     29 C29         13.9020    -5.8350    -3.8070 ca         1 Q2Y       0.288900
     30 N4          14.3930    -5.3560    -4.9040 nb         1 Q2Y      -0.605000
     31 C31         14.4540    -6.1710    -5.9890 ca         1 Q2Y       0.248300
     32 C30         14.9710    -5.6840    -7.2040 ca         1 Q2Y      -0.136300
     33 C8          14.0250    -7.5140    -5.8900 ca         1 Q2Y       0.343300
     34 N1          13.5050    -7.9960    -4.7390 nb         1 Q2Y      -0.731000
     35 C16         14.1330    -8.3530    -7.0180 ca         1 Q2Y      -0.179300
     36 C28         14.6390    -7.8570    -8.1920 ca         1 Q2Y      -0.111000
     37 C15         15.0590    -6.5160    -8.2900 ca         1 Q2Y      -0.143000
     38 C1           9.4060    -4.6290    -4.8150 c3         1 Q2Y      -0.202100
     39 H71          9.2720    -0.8420    -4.9300 hc         1 Q2Y       0.034200
     40 H72          9.1350    -2.0640    -6.1720 hc         1 Q2Y       0.034200
     41 H27          7.2660    -3.1300    -4.8790 h1         1 Q2Y       0.106700
     42 HN5          7.6540    -0.8430    -3.1570 hn         1 Q2Y       0.324500
     43 H91          5.2010    -1.6950    -1.1080 hc         1 Q2Y       0.070200
     44 H92          6.5190    -0.5540    -1.3180 hc         1 Q2Y       0.070200
     45 H21          5.1800    -2.9110     1.1820 ha         1 Q2Y       0.151000
     46 H23          6.8300    -3.6030     3.1140 ha         1 Q2Y       0.148000
     47 H171        10.1750    -2.1090     3.0430 h1         1 Q2Y       0.061200
     48 H172         9.3770    -3.5330     3.6870 h1         1 Q2Y       0.061200
     49 HN3         11.2260    -3.3770     1.3990 hn         1 Q2Y       0.315500
     50 H22         11.6620    -7.5950     1.7870 ha         1 Q2Y       0.154000
     51 H11         12.7600    -8.6460    -0.1300 ha         1 Q2Y       0.145500
     52 H26         10.6920    -4.2030    -0.6560 ha         1 Q2Y       0.154000
     53 H25         11.6670    -5.2790    -2.5690 ha         1 Q2Y       0.145500
     54 HN2         12.8740    -8.7070    -2.5310 hn         1 Q2Y       0.450800
     55 H29         13.8980    -5.1890    -2.9370 h4         1 Q2Y       0.042100
     56 H30         15.2940    -4.6520    -7.2570 ha         1 Q2Y       0.150000
     57 H16         13.8060    -9.3810    -6.9380 ha         1 Q2Y       0.146000
     58 H28         14.7160    -8.5040    -9.0570 ha         1 Q2Y       0.130000
     59 H15         15.4550    -6.1470    -9.2270 ha         1 Q2Y       0.133000
     60 H11A         8.7040    -5.4110    -4.5120 hc         1 Q2Y       0.057033
     61 H12          9.2080    -4.4200    -5.8670 hc         1 Q2Y       0.057033
     62 H13         10.4170    -5.0150    -4.7060 hc         1 Q2Y       0.057033
@<TRIPOS>BOND
     1     1     2 1   
     2     2     3 1   
     3     2     4 1   
     4     4     5 1   
     5     4    39 1   
     6     4    40 1   
     7     5     6 1   
     8     5     8 1   
     9     5    41 1   
    10     6     7 2   
    11     6    38 1   
    12     8     9 1   
    13     8    42 1   
    14     9    10 2   
    15     9    11 1   
    16    11    12 1   
    17    11    43 1   
    18    11    44 1   
    19    12    13 2   
    20    12    16 1   
    21    13    14 1   
    22    13    45 1   
    23    14    15 2   
    24    14    46 1   
    25    15    16 1   
    26    15    17 1   
    27    17    18 1   
    28    17    47 1   
    29    17    48 1   
    30    18    19 1   
    31    18    49 1   
    32    19    20 2   
    33    19    21 1   
    34    21    22 ar  
    35    21    24 ar  
    36    22    23 ar  
    37    22    50 1   
    38    23    26 ar  
    39    23    51 1   
    40    24    25 ar  
    41    24    52 1   
    42    25    26 ar  
    43    25    53 1   
    44    26    27 1   
    45    27    28 1   
    46    27    54 1   
    47    28    29 ar  
    48    28    34 ar  
    49    29    30 ar  
    50    29    55 1   
    51    30    31 ar  
    52    31    32 ar  
    53    31    33 ar  
    54    32    37 ar  
    55    32    56 1   
    56    33    34 ar  
    57    33    35 ar  
    58    35    36 ar  
    59    35    57 1   
    60    36    37 ar  
    61    36    58 1   
    62    37    59 1   
    63    38    60 1   
    64    38    61 1   
    65    38    62 1   
@<TRIPOS>SUBSTRUCTURE
     1 Q2Y         1 TEMP              0 ****  ****    0 ROOT
