@<TRIPOS>MOLECULE
Q31
   52    54     1     0     0
SMALL
abcg2


@<TRIPOS>ATOM
      1 C1          -2.2970    -1.0750    -2.0380 ca         1 Q31      -0.134000
      2 C2          -2.8980    -2.3030    -1.7360 ca         1 Q31      -0.129000
      3 C3           6.3030    -0.8540     0.4630 cc         1 Q31      -0.224000
      4 C4           5.7860    -2.9610     0.7360 cc         1 Q31       0.384400
      5 C5          -3.0550    -0.0680     0.0390 ca         1 Q31      -0.097600
      6 C6          -2.3650     0.0260    -1.1920 ca         1 Q31      -0.068300
      7 C7          -3.5560    -2.3750    -0.5350 ca         1 Q31       0.027100
      8 C8          -3.6130    -1.2920     0.3260 ca         1 Q31       0.064100
      9 C9           4.9680    -0.9900     0.7170 cd         1 Q31       0.269300
     10 C10         -3.2030     1.0880     1.0200 c          1 Q31       0.722600
     11 C11          2.9950     0.0660    -0.3970 c          1 Q31       0.605100
     12 C12         -4.5600    -3.0330     1.3280 c5         1 Q31       0.369600
     13 C13          1.4930     5.0030    -0.4470 c3         1 Q31      -0.086600
     14 C14          0.8470     3.5230     1.4620 c3         1 Q31      -0.086600
     15 C15         -1.6520     1.2990    -1.5610 c3         1 Q31      -0.019100
     16 C16          3.9340     0.0740     0.7990 c3         1 Q31      -0.178700
     17 C17          0.0090     3.0400    -0.8830 c3         1 Q31      -0.067400
     18 C18          0.7020     0.5910    -1.1280 c3         1 Q31       0.101000
     19 C19          1.1630     3.5730    -0.0300 c3         1 Q31      -0.058700
     20 C20         -0.3940     1.5720    -0.7150 c3         1 Q31      -0.075700
     21 N21          4.6590    -2.3120     0.8860 nd         1 Q31      -0.658000
     22 N22          6.8070    -2.1230     0.4790 na         1 Q31      -0.306500
     23 N23          1.7410     0.4590    -0.1280 ns         1 Q31      -0.494900
     24 O24         -3.7290     2.1250     0.5790 o          1 Q31      -0.709000
     25 O25         -2.8010     0.8720     2.1770 o          1 Q31      -0.709000
     26 O26          3.3770    -0.2340    -1.5190 o          1 Q31      -0.623100
     27 O27         -4.2480    -3.4170    -0.0040 os         1 Q31      -0.370100
     28 O28         -4.3560    -1.6330     1.4150 os         1 Q31      -0.317100
     29 H1          -1.7520    -0.9850    -2.9710 ha         1 Q31       0.095000
     30 H2          -2.8440    -3.1430    -2.4150 ha         1 Q31       0.108000
     31 H22          7.7690    -2.3830     0.3350 hn         1 Q31       0.343000
     32 H151        -1.3680     1.2660    -2.6180 hc         1 Q31       0.053200
     33 H152        -2.3340     2.1410    -1.4450 hc         1 Q31       0.053200
     34 H161         3.3680    -0.0100     1.7310 hc         1 Q31       0.062200
     35 H162         4.4170     1.0560     0.8220 hc         1 Q31       0.062200
     36 H23          1.4860     0.6210     0.8320 hn         1 Q31       0.319500
     37 H121        -5.6010    -3.2710     1.5460 h2         1 Q31       0.042700
     38 H122        -3.8960    -3.5530     2.0290 h2         1 Q31       0.042700
     39 H131         2.3130     5.4090     0.1480 hc         1 Q31       0.029200
     40 H132         1.7870     5.0540    -1.4970 hc         1 Q31       0.029200
     41 H133         0.6300     5.6590    -0.3120 hc         1 Q31       0.029200
     42 H19          2.0510     2.9620    -0.2140 hc         1 Q31       0.038700
     43 H141         0.6190     2.5160     1.8150 hc         1 Q31       0.029200
     44 H142         1.6880     3.8900     2.0530 hc         1 Q31       0.029200
     45 H143        -0.0180     4.1480     1.6970 hc         1 Q31       0.029200
     46 H20         -0.6540     1.3830     0.3330 hc         1 Q31       0.091700
     47 H171        -0.8750     3.6550    -0.6740 hc         1 Q31       0.040200
     48 H172         0.2470     3.2050    -1.9410 hc         1 Q31       0.040200
     49 H181         0.2600    -0.3920    -1.3210 h1         1 Q31       0.049700
     50 H182         1.1510     0.9220    -2.0670 h1         1 Q31       0.049700
     51 H3           6.9160     0.0110     0.2770 h4         1 Q31       0.153000
     52 H4           5.9190    -4.0300     0.8050 h5         1 Q31       0.048100
@<TRIPOS>BOND
     1     1     2 ar  
     2     1     6 ar  
     3     1    29 1   
     4     2     7 ar  
     5     2    30 1   
     6     3     9 2   
     7     3    22 1   
     8     3    51 1   
     9     4    21 2   
    10     4    22 1   
    11     4    52 1   
    12     5     6 ar  
    13     5     8 ar  
    14     5    10 1   
    15     6    15 1   
    16     7     8 ar  
    17     7    27 1   
    18     8    28 1   
    19     9    16 1   
    20     9    21 1   
    21    10    24 1   
    22    10    25 1   
    23    11    16 1   
    24    11    23 1   
    25    11    26 2   
    26    12    27 1   
    27    12    28 1   
    28    12    37 1   
    29    12    38 1   
    30    13    19 1   
    31    13    39 1   
    32    13    40 1   
    33    13    41 1   
    34    14    19 1   
    35    14    43 1   
    36    14    44 1   
    37    14    45 1   
    38    15    20 1   
    39    15    32 1   
    40    15    33 1   
    41    16    34 1   
    42    16    35 1   
    43    17    19 1   
    44    17    20 1   
    45    17    47 1   
    46    17    48 1   
    47    18    20 1   
    48    18    23 1   
    49    18    49 1   
    50    18    50 1   
    51    19    42 1   
    52    20    46 1   
    53    22    31 1   
    54    23    36 1   
@<TRIPOS>SUBSTRUCTURE
     1 Q31         1 TEMP              0 ****  ****    0 ROOT
