@<TRIPOS>MOLECULE
Q31
   52    54     1     0     0
SMALL
No Charge or Current Charge


@<TRIPOS>ATOM
      1 C1          -2.1670    -1.0250    -2.0710 ca         1 Q31      -0.134000
      2 C2          -2.6770    -2.3160    -1.8280 ca         1 Q31      -0.129000
      3 C3           5.7340    -1.4310     0.1030 cc         1 Q31      -0.224000
      4 C4           4.9010    -2.8530     1.6020 cc         1 Q31       0.384400
      5 C5          -2.9410    -0.2710     0.1370 ca         1 Q31      -0.097600
      6 C6          -2.2870     0.0030    -1.0980 ca         1 Q31      -0.068300
      7 C7          -3.3010    -2.5530    -0.6010 ca         1 Q31       0.027100
      8 C8          -3.4300    -1.5730     0.3430 ca         1 Q31       0.064100
      9 C9           4.7010    -0.8590     0.7980 cd         1 Q31       0.269300
     10 C10         -3.1340     0.7710     1.2050 c          1 Q31       0.722600
     11 C11          3.1890     0.5960    -0.5350 c          1 Q31       0.605100
     12 C12         -4.2780    -3.4430     1.1670 c5         1 Q31       0.369600
     13 C13          1.5300     5.2140    -0.5580 c3         1 Q31      -0.086600
     14 C14          1.1270     3.6220     1.3810 c3         1 Q31      -0.086600
     15 C15         -1.7070     1.3850    -1.4110 c3         1 Q31      -0.019100
     16 C16          4.1490     0.5220     0.6420 c3         1 Q31      -0.178700
     17 C17          0.0310     3.1830    -0.9250 c3         1 Q31      -0.067400
     18 C18          0.7420     0.6790    -1.1450 c3         1 Q31       0.101000
     19 C19          1.2620     3.7460    -0.1560 c3         1 Q31      -0.058700
     20 C20         -0.3570     1.6860    -0.6970 c3         1 Q31      -0.075700
     21 N21          4.1910    -1.7410     1.7260 nd         1 Q31      -0.658000
     22 N22          5.8520    -2.7050     0.6220 na         1 Q31      -0.306500
     23 N23          1.8550     0.5770    -0.1970 ns         1 Q31      -0.494900
     24 O24         -3.9900     1.6270     1.0280 o          1 Q31      -0.709000
     25 O25         -2.4350     0.7070     2.2070 o          1 Q31      -0.709000
     26 O26          3.5750     0.6640    -1.6930 o          1 Q31      -0.623100
     27 O27         -3.8640    -3.7260    -0.2150 os         1 Q31      -0.370100
     28 O28         -4.1010    -2.0100     1.4420 os         1 Q31      -0.317100
     29 H1          -1.6730    -0.8220    -3.0180 ha         1 Q31       0.095000
     30 H2          -2.5890    -3.1040    -2.5710 ha         1 Q31       0.108000
     31 H22          6.5160    -3.4200     0.3450 hn         1 Q31       0.343000
     32 H151        -1.5650     1.4970    -2.4930 hc         1 Q31       0.053200
     33 H152        -2.4410     2.1540    -1.1390 hc         1 Q31       0.053200
     34 H161         3.6290     0.8040     1.5650 hc         1 Q31       0.062200
     35 H162         4.9790     1.2160     0.4640 hc         1 Q31       0.062200
     36 H23          1.6410     0.4890     0.7890 hn         1 Q31       0.319500
     37 H121        -5.3300    -3.7200     1.3050 h2         1 Q31       0.042700
     38 H122        -3.6430    -4.0160     1.8520 h2         1 Q31       0.042700
     39 H131         2.4310     5.5950    -0.0630 hc         1 Q31       0.029200
     40 H132         1.6810     5.2990    -1.6410 hc         1 Q31       0.029200
     41 H133         0.6870     5.8570    -0.2770 hc         1 Q31       0.029200
     42 H19          2.1490     3.1830    -0.4630 hc         1 Q31       0.038700
     43 H141         1.0680     2.5740     1.6950 hc         1 Q31       0.029200
     44 H142         1.9970     4.0650     1.8810 hc         1 Q31       0.029200
     45 H143         0.2280     4.1390     1.7360 hc         1 Q31       0.029200
     46 H20         -0.5320     1.5370     0.3730 hc         1 Q31       0.091700
     47 H171        -0.8340     3.8070    -0.6650 hc         1 Q31       0.040200
     48 H172         0.1960     3.3330    -2.0000 hc         1 Q31       0.040200
     49 H181         0.3140    -0.3260    -1.2300 h1         1 Q31       0.049700
     50 H182         1.1120     0.9640    -2.1390 h1         1 Q31       0.049700
     51 H3           6.3620    -1.0400    -0.6890 h4         1 Q31       0.153000
     52 H4           4.7810    -3.7670     2.1720 h5         1 Q31       0.048100
@<TRIPOS>BOND
     1     1     2 ar  
     2     1     6 ar  
     3     1    29 1   
     4     2     7 ar  
     5     2    30 1   
     6     3     9 2   
     7     3    22 1   
     8     3    51 1   
     9     4    21 2   
    10     4    22 1   
    11     4    52 1   
    12     5     6 ar  
    13     5     8 ar  
    14     5    10 1   
    15     6    15 1   
    16     7     8 ar  
    17     7    27 1   
    18     8    28 1   
    19     9    16 1   
    20     9    21 1   
    21    10    24 1   
    22    10    25 1   
    23    11    16 1   
    24    11    23 1   
    25    11    26 2   
    26    12    27 1   
    27    12    28 1   
    28    12    37 1   
    29    12    38 1   
    30    13    19 1   
    31    13    39 1   
    32    13    40 1   
    33    13    41 1   
    34    14    19 1   
    35    14    43 1   
    36    14    44 1   
    37    14    45 1   
    38    15    20 1   
    39    15    32 1   
    40    15    33 1   
    41    16    34 1   
    42    16    35 1   
    43    17    19 1   
    44    17    20 1   
    45    17    47 1   
    46    17    48 1   
    47    18    20 1   
    48    18    23 1   
    49    18    49 1   
    50    18    50 1   
    51    19    42 1   
    52    20    46 1   
    53    22    31 1   
    54    23    36 1   
@<TRIPOS>SUBSTRUCTURE
     1 Q31         1 TEMP              0 ****  ****    0 ROOT
