@<TRIPOS>MOLECULE
Q34
   71    75     1     0     0
SMALL
No Charge or Current Charge


@<TRIPOS>ATOM
      1 O3         233.9600   173.7090   226.1610 o          1 Q34      -0.739000
      2 C24        234.7900   174.5120   225.7560 c          1 Q34       0.689000
      3 O2         234.7120   175.7150   225.9740 o          1 Q34      -0.739000
      4 C23        235.9530   173.9820   224.8190 c3         1 Q34       0.018500
      5 N7         235.7440   174.2170   223.3390 n8         1 Q34      -1.000200
      6 C22        237.3310   174.5400   225.2780 c3         1 Q34      -0.049400
      7 C21        238.5700   173.7730   224.7370 c3         1 Q34       0.197800
      8 N5         238.7430   172.3570   225.1810 n3         1 Q34      -0.727600
      9 C9         239.7830   171.6680   224.3470 c3         1 Q34       0.192800
     10 C8         239.6910   170.1160   224.1930 c5         1 Q34       0.124300
     11 C7         240.4930   169.5160   223.0020 c5         1 Q34       0.086300
     12 O1         241.9190   169.4770   223.2170 oh         1 Q34      -0.721000
     13 C6         239.8990   168.0740   222.9720 c5         1 Q34       0.139300
     14 O          240.6660   167.2760   223.8820 oh         1 Q34      -0.705000
     15 O4         238.3510   169.6970   223.8740 os         1 Q34      -0.394000
     16 C5         238.4140   168.3190   223.4540 c5         1 Q34       0.315300
     17 N4         237.3280   168.0810   222.5060 na         1 Q34      -0.302300
     18 C2         236.0750   167.6300   222.8080 ca         1 Q34       0.111500
     19 N2         235.4900   167.3040   223.9780 nb         1 Q34      -0.215000
     20 C1         234.2030   166.8870   223.8940 ca         1 Q34       0.168900
     21 N1         233.4620   166.7660   222.7650 nb         1 Q34      -0.313000
     22 C4         237.3870   168.2630   221.1200 cc         1 Q34       0.445700
     23 N3         236.2180   167.9360   220.5320 nd         1 Q34      -0.572100
     24 C3         235.4150   167.5430   221.6090 ca         1 Q34      -0.089600
     25 C          234.0770   167.0950   221.6180 ca         1 Q34       0.443900
     26 N          233.3330   166.9760   220.4860 nv         1 Q34      -1.070900
     27 C10        238.9220   172.2470   226.6660 c3         1 Q34       0.192800
     28 C11        239.0340   170.8420   227.2960 cy         1 Q34      -0.098700
     29 C20        238.6780   170.6870   228.8170 cy         1 Q34       0.154800
     30 N6         237.2930   170.4280   228.3360 nq         1 Q34      -0.705600
     31 C12        237.8550   169.8300   227.0940 cy         1 Q34       0.154800
     32 C13        236.3130   169.7120   229.1530 c3         1 Q34       0.225100
     33 C14        235.0540   169.3500   228.3700 ca         1 Q34      -0.098300
     34 C19        234.3190   170.3520   227.7060 ca         1 Q34      -0.088000
     35 C18        233.1720   170.0190   226.9640 ca         1 Q34      -0.105000
     36 C17        232.7520   168.6820   226.8860 ca         1 Q34       0.113000
     37 Cl         231.3180   168.2650   225.9570 cl         1 Q34      -0.233000
     38 C16        233.4760   167.6770   227.5480 ca         1 Q34      -0.105000
     39 C15        234.6260   168.0090   228.2870 ca         1 Q34      -0.088000
     40 H4         235.9820   172.8940   224.9730 h1         1 Q34       0.053700
     41 H33        234.8560   173.7860   223.0570 hn         1 Q34       0.382000
     42 H32        235.5790   175.2200   223.1870 hn         1 Q34       0.382000
     43 H28        237.3650   174.5690   226.3720 hc         1 Q34       0.041700
     44 H29        237.4110   175.5860   224.9590 hc         1 Q34       0.041700
     45 H27        238.5160   173.8100   223.6410 h1         1 Q34       0.015200
     46 H26        239.4650   174.3440   225.0190 h1         1 Q34       0.015200
     47 H11        240.7840   171.9190   224.7230 h1         1 Q34       0.021700
     48 H12        239.7360   172.0650   223.3240 h1         1 Q34       0.021700
     49 H3         239.9960   169.6330   225.1270 h1         1 Q34       0.076700
     50 H2         240.2550   170.0470   222.0690 h1         1 Q34       0.049700
     51 H10        242.2980   170.3250   222.8790 ho         1 Q34       0.515000
     52 H1         239.9400   167.6460   221.9600 h1         1 Q34       0.073700
     53 H9         241.5140   167.7920   223.9280 ho         1 Q34       0.523000
     54 H          238.2120   167.6660   224.3140 h2         1 Q34       0.122700
     55 H7         233.7160   166.6160   224.8280 h5         1 Q34       0.037100
     56 H8         238.2740   168.6290   220.6150 h5         1 Q34       0.091800
     57 H5         232.3220   166.9400   220.5820 hn         1 Q34       0.501500
     58 H6         233.6970   167.4210   219.6460 hn         1 Q34       0.501500
     59 H13        239.8170   172.8060   226.9730 h1         1 Q34       0.040700
     60 H14        238.0710   172.7230   227.1670 h1         1 Q34       0.040700
     61 H15        240.0280   170.4490   227.0680 hc         1 Q34       0.039700
     62 H25        239.1690   169.8300   229.2970 h1         1 Q34       0.048950
     63 H24        238.8180   171.5900   229.4230 h1         1 Q34       0.048950
     64 H16        237.2570   169.9790   226.1880 h1         1 Q34       0.048950
     65 H17        238.1570   168.7780   227.1810 h1         1 Q34       0.048950
     66 H18        236.7800   168.7950   229.5400 h1         1 Q34       0.025200
     67 H19        236.0410   170.3390   230.0130 h1         1 Q34       0.025200
     68 H23        234.6460   171.3890   227.7560 ha         1 Q34       0.140000
     69 H22        232.6130   170.7960   226.4490 ha         1 Q34       0.137500
     70 H21        233.1480   166.6420   227.4850 ha         1 Q34       0.137500
     71 H20        235.1850   167.2230   228.7910 ha         1 Q34       0.140000
@<TRIPOS>BOND
     1     1     2 1   
     2     2     3 1   
     3     2     4 1   
     4     4     5 1   
     5     4     6 1   
     6     4    40 1   
     7     5    41 1   
     8     5    42 1   
     9     6     7 1   
    10     6    43 1   
    11     6    44 1   
    12     7     8 1   
    13     7    45 1   
    14     7    46 1   
    15     8     9 1   
    16     8    27 1   
    17     9    10 1   
    18     9    47 1   
    19     9    48 1   
    20    10    11 1   
    21    10    15 1   
    22    10    49 1   
    23    11    12 1   
    24    11    13 1   
    25    11    50 1   
    26    12    51 1   
    27    13    14 1   
    28    13    16 1   
    29    13    52 1   
    30    14    53 1   
    31    15    16 1   
    32    16    17 1   
    33    16    54 1   
    34    17    18 1   
    35    17    22 1   
    36    18    19 ar  
    37    18    24 ar  
    38    19    20 ar  
    39    20    21 ar  
    40    20    55 1   
    41    21    25 ar  
    42    22    23 2   
    43    22    56 1   
    44    23    24 1   
    45    24    25 ar  
    46    25    26 1   
    47    26    57 1   
    48    26    58 1   
    49    27    28 1   
    50    27    59 1   
    51    27    60 1   
    52    28    29 1   
    53    28    31 1   
    54    28    61 1   
    55    29    30 1   
    56    29    62 1   
    57    29    63 1   
    58    30    31 1   
    59    30    32 1   
    60    31    64 1   
    61    31    65 1   
    62    32    33 1   
    63    32    66 1   
    64    32    67 1   
    65    33    34 ar  
    66    33    39 ar  
    67    34    35 ar  
    68    34    68 1   
    69    35    36 ar  
    70    35    69 1   
    71    36    37 1   
    72    36    38 ar  
    73    38    39 ar  
    74    38    70 1   
    75    39    71 1   
@<TRIPOS>SUBSTRUCTURE
     1 Q34         1 TEMP              0 ****  ****    0 ROOT
