@<TRIPOS>MOLECULE
Q34
   71    75     1     0     0
SMALL
bcc


@<TRIPOS>ATOM
      1 O3         234.6600   173.7070   226.9550 o          1 Q34      -0.844300
      2 C24        234.4390   173.4350   225.7520 c          1 Q34       0.899600
      3 O2         233.4040   173.7020   225.1140 o          1 Q34      -0.844300
      4 C23        235.5840   172.7090   224.9980 c3         1 Q34       0.018500
      5 N7         235.2400   172.2240   223.6690 n8         1 Q34      -0.889800
      6 C22        236.8110   173.6220   224.9200 c3         1 Q34      -0.049400
      7 C21        238.0590   172.9650   224.3400 c3         1 Q34       0.197800
      8 N5         238.5110   171.7960   225.0760 n3         1 Q34      -0.727600
      9 C9         239.3320   170.8890   224.2950 c3         1 Q34       0.192800
     10 C8         238.8450   169.4510   224.3530 c5         1 Q34       0.101100
     11 C7         239.5940   168.4900   223.4260 c5         1 Q34       0.063100
     12 O1         240.7400   167.9090   223.9760 oh         1 Q34      -0.598800
     13 C6         238.5370   167.4160   223.1760 c5         1 Q34       0.116100
     14 O          238.4070   166.5530   224.2740 oh         1 Q34      -0.582800
     15 O4         237.4890   169.3890   223.9090 os         1 Q34      -0.347600
     16 C5         237.2620   168.2610   223.1290 c5         1 Q34       0.262800
     17 N4         236.9280   168.6830   221.7730 na         1 Q34      -0.273000
     18 C2         236.3540   167.8860   220.8270 ca         1 Q34       0.439800
     19 N2         236.0370   166.5950   220.9250 nb         1 Q34      -0.741000
     20 C1         235.4850   166.1450   219.8110 ca         1 Q34       0.694900
     21 N1         235.2370   166.8080   218.6850 nb         1 Q34      -0.839000
     22 C4         237.0370   169.9250   221.2100 cc         1 Q34       0.445700
     23 N3         236.5930   169.9780   219.9870 nd         1 Q34      -0.572100
     24 C3         236.1590   168.7050   219.7260 ca         1 Q34      -0.220200
     25 C          235.5650   168.1030   218.6020 ca         1 Q34       0.772200
     26 N          235.3280   168.7650   217.4680 nv         1 Q34      -0.960500
     27 C10        239.0670   172.1190   226.3730 c3         1 Q34       0.192800
     28 C11        239.2090   170.9190   227.2970 cy         1 Q34      -0.098700
     29 C20        239.2790   171.3110   228.7850 cy         1 Q34       0.154800
     30 N6         237.8390   171.0730   228.8780 nq         1 Q34      -0.705600
     31 C12        237.8740   170.2530   227.6660 cy         1 Q34       0.154800
     32 C13        237.2950   170.5040   230.0770 c3         1 Q34       0.225100
     33 C14        235.7990   170.3410   229.9860 ca         1 Q34      -0.098300
     34 C19        235.0270   171.2090   229.2190 ca         1 Q34      -0.106000
     35 C18        233.6470   171.0770   229.1580 ca         1 Q34      -0.123000
     36 C17        233.0320   170.0630   229.8750 ca         1 Q34       0.021400
     37 CL         231.3060   169.8880   229.8000 cl         1 Q34      -0.141400
     38 C16        233.7750   169.1820   230.6430 ca         1 Q34      -0.123000
     39 C15        235.1550   169.3260   230.6880 ca         1 Q34      -0.106000
     40 H4         235.8660   171.8380   225.5980 h1         1 Q34       0.053700
     41 H33        234.5100   171.5280   223.7560 hn         1 Q34       0.326800
     42 H32        234.8030   172.9850   223.1600 hn         1 Q34       0.326800
     43 H28        237.0130   174.0300   225.9110 hc         1 Q34       0.041700
     44 H29        236.5760   174.4870   224.2880 hc         1 Q34       0.041700
     45 H27        237.8280   172.6480   223.3220 h1         1 Q34       0.015200
     46 H26        238.8530   173.7280   224.2550 h1         1 Q34       0.015200
     47 H11        240.3850   170.9090   224.6170 h1         1 Q34       0.021700
     48 H12        239.3400   171.2060   223.2480 h1         1 Q34       0.021700
     49 H3         238.8990   169.0720   225.3790 h1         1 Q34       0.076700
     50 H2         239.8160   168.9980   222.4750 h1         1 Q34       0.049700
     51 H10        241.4220   168.5790   224.0810 ho         1 Q34       0.416000
     52 H1         238.7050   166.8690   222.2410 h1         1 Q34       0.073700
     53 H9         239.2840   166.2390   224.5200 ho         1 Q34       0.424000
     54 H          236.4050   167.6920   223.5040 h2         1 Q34       0.122700
     55 H7         235.1950   165.1000   219.8100 h5         1 Q34       0.037100
     56 H8         237.4460   170.7640   221.7500 h5         1 Q34       0.091800
     57 H5         234.8420   168.3130   216.7120 hn         1 Q34       0.446300
     58 H6         235.5000   169.7520   217.3990 hn         1 Q34       0.446300
     59 H13        240.0510   172.6140   226.2840 h1         1 Q34       0.040700
     60 H14        238.4030   172.8370   226.8590 h1         1 Q34       0.040700
     61 H15        239.9980   170.2440   226.9630 hc         1 Q34       0.039700
     62 H25        239.8780   170.5980   229.3670 h1         1 Q34       0.048950
     63 H24        239.6040   172.3260   229.0320 h1         1 Q34       0.048950
     64 H16        237.0340   170.3880   226.9810 h1         1 Q34       0.048950
     65 H17        237.9910   169.1800   227.8740 h1         1 Q34       0.048950
     66 H18        237.7520   169.5300   230.3210 h1         1 Q34       0.025200
     67 H19        237.5340   171.1710   230.9120 h1         1 Q34       0.025200
     68 H23        235.4960   171.9960   228.6430 ha         1 Q34       0.158000
     69 H22        233.0670   171.7610   228.5530 ha         1 Q34       0.155500
     70 H21        233.2910   168.3870   231.1940 ha         1 Q34       0.155500
     71 H20        235.7350   168.6280   231.2790 ha         1 Q34       0.158000
@<TRIPOS>BOND
     1     1     2 1   
     2     2     3 1   
     3     2     4 1   
     4     4     5 1   
     5     4     6 1   
     6     4    40 1   
     7     5    41 1   
     8     5    42 1   
     9     6     7 1   
    10     6    43 1   
    11     6    44 1   
    12     7     8 1   
    13     7    45 1   
    14     7    46 1   
    15     8     9 1   
    16     8    27 1   
    17     9    10 1   
    18     9    47 1   
    19     9    48 1   
    20    10    11 1   
    21    10    15 1   
    22    10    49 1   
    23    11    12 1   
    24    11    13 1   
    25    11    50 1   
    26    12    51 1   
    27    13    14 1   
    28    13    16 1   
    29    13    52 1   
    30    14    53 1   
    31    15    16 1   
    32    16    17 1   
    33    16    54 1   
    34    17    18 1   
    35    17    22 1   
    36    18    19 ar  
    37    18    24 ar  
    38    19    20 ar  
    39    20    21 ar  
    40    20    55 1   
    41    21    25 ar  
    42    22    23 2   
    43    22    56 1   
    44    23    24 1   
    45    24    25 ar  
    46    25    26 1   
    47    26    57 1   
    48    26    58 1   
    49    27    28 1   
    50    27    59 1   
    51    27    60 1   
    52    28    29 1   
    53    28    31 1   
    54    28    61 1   
    55    29    30 1   
    56    29    62 1   
    57    29    63 1   
    58    30    31 1   
    59    30    32 1   
    60    31    64 1   
    61    31    65 1   
    62    32    33 1   
    63    32    66 1   
    64    32    67 1   
    65    33    34 ar  
    66    33    39 ar  
    67    34    35 ar  
    68    34    68 1   
    69    35    36 ar  
    70    35    69 1   
    71    36    37 1   
    72    36    38 ar  
    73    38    39 ar  
    74    38    70 1   
    75    39    71 1   
@<TRIPOS>SUBSTRUCTURE
     1 Q34         1 TEMP              0 ****  ****    0 ROOT
