@<TRIPOS>MOLECULE
Q35
   79    82     1     0     0
SMALL
No Charge or Current Charge


@<TRIPOS>ATOM
      1 OAF         -8.3610     3.4810     2.2970 o          1 Q35      -0.705000
      2 CBF         -7.7940     2.4740     2.7040 c          1 Q35       0.707000
      3 OAI         -6.6930     2.5150     3.2400 o          1 Q35      -0.705000
      4 CBS         -8.4680     1.0710     2.4340 c3         1 Q35       0.034000
      5 CAD         -9.4290     0.7740     3.6120 c3         1 Q35      -0.076100
      6 CAE         -9.2680     1.0060     1.0980 c3         1 Q35      -0.076100
      7 OBD         -7.5300    -0.0460     2.4580 os         1 Q35      -0.341100
      8 CBK         -6.4770    -0.2410     1.5760 ca         1 Q35       0.242100
      9 CAP         -6.0320     0.7220     0.6470 ca         1 Q35      -0.191500
     10 CAR         -4.9570     0.4370    -0.2120 ca         1 Q35      -0.040000
     11 CAO         -5.8220    -1.4790     1.6330 ca         1 Q35      -0.191500
     12 CAQ         -4.7470    -1.7690     0.7760 ca         1 Q35      -0.040000
     13 CBN         -4.2990    -0.8140    -0.1630 ca         1 Q35      -0.241500
     14 CBO         -3.1730    -1.1040    -1.0710 cc         1 Q35       0.374500
     15 CAV         -2.4480    -2.3110    -1.1100 cc         1 Q35      -0.190000
     16 NAY         -2.7300    -0.2230    -1.9600 nd         1 Q35      -0.379300
     17 OBE         -1.6430    -0.8960    -2.6230 os         1 Q35      -0.083700
     18 CBP         -1.5140    -2.1440    -2.0770 cd         1 Q35       0.106300
     19 CBQ         -0.4320    -3.0790    -2.5760 c3         1 Q35       0.168000
     20 CAW         -0.5730    -3.3880    -4.0840 c3         1 Q35      -0.077400
     21 CAA          0.4500    -4.4200    -4.6080 c3         1 Q35      -0.087100
     22 OBC          0.8600    -2.4680    -2.3830 os         1 Q35      -0.453100
     23 CBH          1.3560    -2.3360    -1.1110 c          1 Q35       0.658100
     24 OAH          0.7730    -2.7660    -0.1270 o          1 Q35      -0.486000
     25 NBR          2.5750    -1.6170    -1.0720 n          1 Q35      -0.406400
     26 CAX          3.1960    -1.1700    -2.3620 c3         1 Q35       0.166300
     27 CBI          3.0210     0.3200    -2.6440 ca         1 Q35      -0.134300
     28 CAM          1.7490     0.9210    -2.5590 ca         1 Q35      -0.085000
     29 CAK          1.5950     2.2960    -2.8060 ca         1 Q35      -0.111000
     30 CAJ          2.7100     3.0800    -3.1410 ca         1 Q35      -0.097000
     31 CAL          3.9810     2.4870    -3.2340 ca         1 Q35      -0.111000
     32 CAN          4.1360     1.1120    -2.9880 ca         1 Q35      -0.085000
     33 CBG          3.2390    -1.2860     0.1370 c          1 Q35       0.674100
     34 OAG          2.8590    -1.6920     1.2260 o          1 Q35      -0.518100
     35 NAZ          4.3440    -0.4500     0.0160 ns         1 Q35      -0.152000
     36 CBJ          5.2700     0.0540     0.9650 ca         1 Q35       0.059000
     37 CAT          6.0860     1.1260     0.5720 ca         1 Q35      -0.222000
     38 CAS          5.4280    -0.4790     2.2590 ca         1 Q35      -0.222000
     39 CBL          6.3700     0.0600     3.1460 ca         1 Q35       0.200100
     40 OBA          6.4690    -0.5130     4.3970 os         1 Q35      -0.338100
     41 CAB          7.4000    -0.0440     5.3880 c3         1 Q35       0.151900
     42 CAU          7.1750     1.1430     2.7440 ca         1 Q35      -0.314000
     43 CBM          7.0310     1.6750     1.4490 ca         1 Q35       0.200100
     44 OBB          7.7900     2.7320     0.9910 os         1 Q35      -0.338100
     45 CAC          8.7880     3.3720     1.8040 c3         1 Q35       0.151900
     46 H2          -9.9140    -0.2020     3.4900 hc         1 Q35       0.028700
     47 H3          -8.8850     0.7700     4.5650 hc         1 Q35       0.028700
     48 H4         -10.2140     1.5380     3.6760 hc         1 Q35       0.028700
     49 H5          -8.6700     1.3310     0.2410 hc         1 Q35       0.028700
     50 H6          -9.6160    -0.0160     0.9030 hc         1 Q35       0.028700
     51 H7         -10.1510     1.6550     1.1440 hc         1 Q35       0.028700
     52 H8          -6.4940     1.6990     0.5800 ha         1 Q35       0.133000
     53 H9          -4.6400     1.2030    -0.9160 ha         1 Q35       0.104000
     54 H10         -6.1550    -2.2250     2.3490 ha         1 Q35       0.133000
     55 H11         -4.2750    -2.7440     0.8560 ha         1 Q35       0.104000
     56 H12         -2.5980    -3.1870    -0.4920 ha         1 Q35       0.153000
     57 H13         -0.5010    -4.0260    -2.0230 h1         1 Q35       0.076700
     58 H14         -1.5840    -3.7690    -4.2730 hc         1 Q35       0.063200
     59 H15         -0.4740    -2.4590    -4.6580 hc         1 Q35       0.063200
     60 H16          0.2760    -4.6220    -5.6710 hc         1 Q35       0.034033
     61 H17          1.4750    -4.0480    -4.4950 hc         1 Q35       0.034033
     62 H18          0.3620    -5.3660    -4.0600 hc         1 Q35       0.034033
     63 H19          4.2670    -1.4120    -2.3350 h1         1 Q35       0.059200
     64 H20          2.8210    -1.7340    -3.2240 h1         1 Q35       0.059200
     65 H21          0.8760     0.3250    -2.3010 ha         1 Q35       0.120000
     66 H22          0.6100     2.7520    -2.7370 ha         1 Q35       0.116500
     67 H23          2.5910     4.1440    -3.3320 ha         1 Q35       0.112000
     68 H24          4.8450     3.0930    -3.4970 ha         1 Q35       0.116500
     69 H25          5.1260     0.6660    -3.0680 ha         1 Q35       0.120000
     70 H26          4.5140    -0.1240    -0.9250 hn         1 Q35       0.157000
     71 H27          5.9860     1.5490    -0.4240 ha         1 Q35       0.144500
     72 H28          4.8370    -1.3240     2.5960 ha         1 Q35       0.144500
     73 H29          8.4320    -0.1310     5.0250 h1         1 Q35       0.038867
     74 H30          7.2030     1.0060     5.6420 h1         1 Q35       0.038867
     75 H31          7.3110    -0.6380     6.3050 h1         1 Q35       0.038867
     76 H32          7.9040     1.5630     3.4270 ha         1 Q35       0.119000
     77 H33          8.3370     3.8020     2.7080 h1         1 Q35       0.038867
     78 H34          9.5650     2.6570     2.1030 h1         1 Q35       0.038867
     79 H35          9.2690     4.1840     1.2460 h1         1 Q35       0.038867
@<TRIPOS>BOND
     1     1     2 1   
     2     2     3 1   
     3     2     4 1   
     4     4     5 1   
     5     4     6 1   
     6     4     7 1   
     7     5    46 1   
     8     5    47 1   
     9     5    48 1   
    10     6    49 1   
    11     6    50 1   
    12     6    51 1   
    13     7     8 1   
    14     8     9 ar  
    15     8    11 ar  
    16     9    10 ar  
    17     9    52 1   
    18    10    13 ar  
    19    10    53 1   
    20    11    12 ar  
    21    11    54 1   
    22    12    13 ar  
    23    12    55 1   
    24    13    14 1   
    25    14    15 1   
    26    14    16 2   
    27    15    18 2   
    28    15    56 1   
    29    16    17 1   
    30    17    18 1   
    31    18    19 1   
    32    19    20 1   
    33    19    22 1   
    34    19    57 1   
    35    20    21 1   
    36    20    58 1   
    37    20    59 1   
    38    21    60 1   
    39    21    61 1   
    40    21    62 1   
    41    22    23 1   
    42    23    24 2   
    43    23    25 1   
    44    25    26 1   
    45    25    33 1   
    46    26    27 1   
    47    26    63 1   
    48    26    64 1   
    49    27    28 ar  
    50    27    32 ar  
    51    28    29 ar  
    52    28    65 1   
    53    29    30 ar  
    54    29    66 1   
    55    30    31 ar  
    56    30    67 1   
    57    31    32 ar  
    58    31    68 1   
    59    32    69 1   
    60    33    34 2   
    61    33    35 1   
    62    35    36 1   
    63    35    70 1   
    64    36    37 ar  
    65    36    38 ar  
    66    37    43 ar  
    67    37    71 1   
    68    38    39 ar  
    69    38    72 1   
    70    39    40 1   
    71    39    42 ar  
    72    40    41 1   
    73    41    73 1   
    74    41    74 1   
    75    41    75 1   
    76    42    43 ar  
    77    42    76 1   
    78    43    44 1   
    79    44    45 1   
    80    45    77 1   
    81    45    78 1   
    82    45    79 1   
@<TRIPOS>SUBSTRUCTURE
     1 Q35         1 TEMP              0 ****  ****    0 ROOT
