@<TRIPOS>MOLECULE
Q35
   79    82     1     0     0
SMALL
bcc


@<TRIPOS>ATOM
      1 OAF         -7.9570     2.8780     2.3480 o          1 Q35      -0.810300
      2 CBF         -7.4690     1.8390     2.8290 c          1 Q35       0.917600
      3 OAI         -6.4330     1.7280     3.5050 o          1 Q35      -0.810300
      4 CBS         -8.2890     0.5310     2.6170 c3         1 Q35       0.010800
      5 CAD         -9.0910     0.2900     3.8930 c3         1 Q35      -0.076100
      6 CAE         -9.2380     0.5650     1.4260 c3         1 Q35      -0.076100
      7 OBD         -7.4230    -0.6130     2.5290 os         1 Q35      -0.317900
      8 CBK         -6.4250    -0.6940     1.6450 ca         1 Q35       0.242100
      9 CAP         -6.0870     0.2710     0.6910 ca         1 Q35      -0.209500
     10 CAR         -5.0290     0.0530    -0.1730 ca         1 Q35      -0.058000
     11 CAO         -5.6770    -1.8750     1.6890 ca         1 Q35      -0.209500
     12 CAQ         -4.6240    -2.0810     0.8200 ca         1 Q35      -0.058000
     13 CBN         -4.2760    -1.1200    -0.1290 ca         1 Q35      -0.241500
     14 CBO         -3.1550    -1.3370    -1.0410 cc         1 Q35       0.439800
     15 CAV         -2.2470    -2.4340    -1.0770 cc         1 Q35      -0.338600
     16 NAY         -2.8530    -0.4670    -1.9680 nd         1 Q35      -0.379300
     17 OBE         -1.7690    -0.9570    -2.6260 os         1 Q35      -0.128100
     18 CBP         -1.4100    -2.1260    -2.0900 cd         1 Q35       0.216000
     19 CBQ         -0.2400    -2.8270    -2.6910 c3         1 Q35       0.144800
     20 CAW         -0.4460    -3.1610    -4.1620 c3         1 Q35      -0.077400
     21 CAA          0.7320    -3.9030    -4.7750 c3         1 Q35      -0.087100
     22 OBC          0.9120    -1.9800    -2.6020 os         1 Q35      -0.429900
     23 CBH          1.5180    -1.8790    -1.4200 c          1 Q35       0.774100
     24 OAH          1.1690    -2.4690    -0.4290 o          1 Q35      -0.535000
     25 NBR          2.6090    -1.0500    -1.4790 n          1 Q35      -0.540400
     26 CAX          3.0600    -0.3710    -2.7030 c3         1 Q35       0.166300
     27 CBI          2.7160     1.0950    -2.6760 ca         1 Q35      -0.134300
     28 CAM          1.4010     1.5150    -2.8660 ca         1 Q35      -0.103000
     29 CAK          1.0780     2.8620    -2.8050 ca         1 Q35      -0.129000
     30 CAJ          2.0670     3.8060    -2.5500 ca         1 Q35      -0.115000
     31 CAL          3.3780     3.3950    -2.3600 ca         1 Q35      -0.129000
     32 CAN          3.6990     2.0440    -2.4220 ca         1 Q35      -0.103000
     33 CBG          3.1340    -0.5820    -0.2430 c          1 Q35       0.808100
     34 OAG          2.4300    -0.1980     0.6590 o          1 Q35      -0.518100
     35 NAZ          4.4870    -0.5910    -0.2360 ns         1 Q35      -0.478100
     36 CBJ          5.3410    -0.0840     0.7520 ca         1 Q35       0.151600
     37 CAT          6.6260    -0.6170     0.7870 ca         1 Q35      -0.240000
     38 CAS          4.9660     0.9240     1.6310 ca         1 Q35      -0.240000
     39 CBL          5.8990     1.3860     2.5580 ca         1 Q35       0.200100
     40 OBA          5.4630     2.3620     3.3750 os         1 Q35      -0.314900
     41 CAB          6.3460     2.8940     4.3430 c3         1 Q35       0.128700
     42 CAU          7.1890     0.8630     2.6150 ca         1 Q35      -0.332000
     43 CBM          7.5440    -0.1410     1.7170 ca         1 Q35       0.200100
     44 OBB          8.7600    -0.7130     1.6860 os         1 Q35      -0.314900
     45 CAC          9.7360    -0.3000     2.6220 c3         1 Q35       0.128700
     46 H2          -9.6690    -0.6340     3.8260 hc         1 Q35       0.028700
     47 H3          -8.4400     0.2290     4.7660 hc         1 Q35       0.028700
     48 H4          -9.7920     1.1100     4.0500 hc         1 Q35       0.028700
     49 H5          -8.7370     0.7290     0.4720 hc         1 Q35       0.028700
     50 H6          -9.7880    -0.3760     1.3570 hc         1 Q35       0.028700
     51 H7          -9.9640     1.3650     1.5540 hc         1 Q35       0.028700
     52 H8          -6.6310     1.2000     0.6020 ha         1 Q35       0.151000
     53 H9          -4.7880     0.8220    -0.8950 ha         1 Q35       0.122000
     54 H10         -5.9290    -2.6340     2.4190 ha         1 Q35       0.151000
     55 H11         -4.0740    -3.0110     0.8870 ha         1 Q35       0.122000
     56 H12         -2.2090    -3.3020    -0.4430 ha         1 Q35       0.171000
     57 H13         -0.0710    -3.7500    -2.1310 h1         1 Q35       0.076700
     58 H14         -1.3430    -3.7810    -4.2210 hc         1 Q35       0.063200
     59 H15         -0.6590    -2.2510    -4.7280 hc         1 Q35       0.063200
     60 H16          0.4900    -4.2160    -5.7900 hc         1 Q35       0.034033
     61 H17          1.6250    -3.2810    -4.8280 hc         1 Q35       0.034033
     62 H18          0.9800    -4.7990    -4.2040 hc         1 Q35       0.034033
     63 H19          4.1360    -0.5050    -2.8150 h1         1 Q35       0.059200
     64 H20          2.6070    -0.8640    -3.5580 h1         1 Q35       0.059200
     65 H21          0.6230     0.7870    -3.0650 ha         1 Q35       0.138000
     66 H22          0.0540     3.1770    -2.9590 ha         1 Q35       0.134500
     67 H23          1.8150     4.8570    -2.5030 ha         1 Q35       0.130000
     68 H24          4.1530     4.1240    -2.1620 ha         1 Q35       0.134500
     69 H25          4.7250     1.7280    -2.2700 ha         1 Q35       0.138000
     70 H26          4.9420    -1.1400    -0.9490 hn         1 Q35       0.323500
     71 H27          6.9170    -1.4040     0.1000 ha         1 Q35       0.162500
     72 H28          3.9820     1.3640     1.6140 ha         1 Q35       0.162500
     73 H29          6.6740     2.1350     5.0580 h1         1 Q35       0.038867
     74 H30          7.2260     3.3540     3.8860 h1         1 Q35       0.038867
     75 H31          5.7890     3.6590     4.8780 h1         1 Q35       0.038867
     76 H32          7.9010     1.2330     3.3380 ha         1 Q35       0.137000
     77 H33          9.9970     0.7540     2.5040 h1         1 Q35       0.038867
     78 H34          9.4120    -0.4710     3.6520 h1         1 Q35       0.038867
     79 H35         10.6200    -0.9020     2.4280 h1         1 Q35       0.038867
@<TRIPOS>BOND
     1     1     2 1   
     2     2     3 1   
     3     2     4 1   
     4     4     5 1   
     5     4     6 1   
     6     4     7 1   
     7     5    46 1   
     8     5    47 1   
     9     5    48 1   
    10     6    49 1   
    11     6    50 1   
    12     6    51 1   
    13     7     8 1   
    14     8     9 ar  
    15     8    11 ar  
    16     9    10 ar  
    17     9    52 1   
    18    10    13 ar  
    19    10    53 1   
    20    11    12 ar  
    21    11    54 1   
    22    12    13 ar  
    23    12    55 1   
    24    13    14 1   
    25    14    15 1   
    26    14    16 2   
    27    15    18 2   
    28    15    56 1   
    29    16    17 1   
    30    17    18 1   
    31    18    19 1   
    32    19    20 1   
    33    19    22 1   
    34    19    57 1   
    35    20    21 1   
    36    20    58 1   
    37    20    59 1   
    38    21    60 1   
    39    21    61 1   
    40    21    62 1   
    41    22    23 1   
    42    23    24 2   
    43    23    25 1   
    44    25    26 1   
    45    25    33 1   
    46    26    27 1   
    47    26    63 1   
    48    26    64 1   
    49    27    28 ar  
    50    27    32 ar  
    51    28    29 ar  
    52    28    65 1   
    53    29    30 ar  
    54    29    66 1   
    55    30    31 ar  
    56    30    67 1   
    57    31    32 ar  
    58    31    68 1   
    59    32    69 1   
    60    33    34 2   
    61    33    35 1   
    62    35    36 1   
    63    35    70 1   
    64    36    37 ar  
    65    36    38 ar  
    66    37    43 ar  
    67    37    71 1   
    68    38    39 ar  
    69    38    72 1   
    70    39    40 1   
    71    39    42 ar  
    72    40    41 1   
    73    41    73 1   
    74    41    74 1   
    75    41    75 1   
    76    42    43 ar  
    77    42    76 1   
    78    43    44 1   
    79    44    45 1   
    80    45    77 1   
    81    45    78 1   
    82    45    79 1   
@<TRIPOS>SUBSTRUCTURE
     1 Q35         1 TEMP              0 ****  ****    0 ROOT
