@<TRIPOS>MOLECULE
Q36
   35    36     1     0     0
SMALL
No Charge or Current Charge


@<TRIPOS>ATOM
      1 N1           6.8220     2.7030    18.6960 nb         1 Q36      -0.646000
      2 C4           7.5920     2.1650    19.6720 ca         1 Q36       0.329900
      3 C5           5.9180     1.9010    18.0920 ca         1 Q36       0.316900
      4 C6           5.7490     0.5510    18.4340 ca         1 Q36      -0.143000
      5 C7           6.5450    -0.0160    19.4460 ca         1 Q36      -0.083300
      6 C8           6.3690    -1.4840    19.8250 c3         1 Q36      -0.051800
      7 C10         12.4590     0.3360    22.7180 ca         1 Q36      -0.071000
      8 C13         13.0150    -2.2190    21.6780 ca         1 Q36      -0.018000
      9 C15         11.6930    -1.8630    22.0140 ca         1 Q36      -0.071000
     10 N2          13.5210    -4.5820    20.7050 n1         1 Q36      -0.448000
     11 C14         13.2970    -3.5240    21.1460 cg         1 Q36       0.321000
     12 C12         14.0570    -1.2930    21.8660 ca         1 Q36      -0.065000
     13 C11         13.7770    -0.0170    22.3840 ca         1 Q36      -0.111000
     14 C9          11.4050    -0.5860    22.5390 ca         1 Q36      -0.093300
     15 C1           9.9590    -0.2150    22.8940 c3         1 Q36      -0.089400
     16 C            9.8180     0.3280    24.3380 c3         1 Q36      -0.076100
     17 C2           9.3670     0.7680    21.8560 c          1 Q36       0.604100
     18 O            9.8140     1.8990    21.7020 o          1 Q36      -0.574100
     19 C3           7.4970     0.8100    20.0850 ca         1 Q36      -0.080000
     20 H1           8.2950     2.8570    20.1280 h4         1 Q36       0.044100
     21 H2           5.3100     2.3560    17.3100 h4         1 Q36       0.022100
     22 H3           5.0030    -0.0420    17.9110 ha         1 Q36       0.122000
     23 H4           7.3000    -2.0440    19.6790 hc         1 Q36       0.046367
     24 H5           6.0720    -1.5880    20.8760 hc         1 Q36       0.046367
     25 H6           5.5970    -1.9700    19.2170 hc         1 Q36       0.046367
     26 H7          12.2600     1.3310    23.1090 ha         1 Q36       0.135000
     27 H8          10.8910    -2.5830    21.8660 ha         1 Q36       0.119000
     28 H9          15.0810    -1.5570    21.6100 ha         1 Q36       0.129000
     29 H10         14.5830     0.7000    22.5250 ha         1 Q36       0.126000
     30 H11          9.3550    -1.1300    22.8560 hc         1 Q36       0.057700
     31 H12         10.2380    -0.3840    25.0590 hc         1 Q36       0.050033
     32 H13         10.3360     1.2870    24.4610 hc         1 Q36       0.050033
     33 H14          8.7610     0.4820    24.5890 hc         1 Q36       0.050033
     34 H15          8.0710    -0.7050    21.3510 hn         1 Q36       0.152000
     35 N            8.3100     0.2500    21.1160 ns         1 Q36      -0.149000
@<TRIPOS>BOND
     1     1     2 ar  
     2     1     3 ar  
     3     2    19 ar  
     4     2    20 1   
     5     3     4 ar  
     6     3    21 1   
     7     4     5 ar  
     8     4    22 1   
     9     5     6 1   
    10     5    19 ar  
    11     6    23 1   
    12     6    24 1   
    13     6    25 1   
    14     7    13 ar  
    15     7    14 ar  
    16     7    26 1   
    17     8     9 ar  
    18     8    11 1   
    19     8    12 ar  
    20     9    14 ar  
    21     9    27 1   
    22    10    11 3   
    23    12    13 ar  
    24    12    28 1   
    25    13    29 1   
    26    14    15 1   
    27    15    16 1   
    28    15    17 1   
    29    15    30 1   
    30    16    31 1   
    31    16    32 1   
    32    16    33 1   
    33    17    18 2   
    34    17    35 1   
    35    19    35 1   
    36    34    35 1   
@<TRIPOS>SUBSTRUCTURE
     1 Q36         1 TEMP              0 ****  ****    0 ROOT
