@<TRIPOS>MOLECULE
Q36
   35    36     1     0     0
SMALL
abcg2


@<TRIPOS>ATOM
      1 N1           7.4630     2.5310    18.6170 nb         1 Q36      -0.646000
      2 C4           8.0920     1.9330    19.6300 ca         1 Q36       0.329900
      3 C5           6.4640     1.8700    18.0270 ca         1 Q36       0.316900
      4 C6           6.0660     0.6000    18.4190 ca         1 Q36      -0.143000
      5 C7           6.7050    -0.0360    19.4770 ca         1 Q36      -0.083300
      6 C8           6.2930    -1.4050    19.9310 c3         1 Q36      -0.051800
      7 C10         12.1370     0.4530    22.4440 ca         1 Q36      -0.071000
      8 C13         12.8130    -2.0810    21.5650 ca         1 Q36      -0.018000
      9 C15         11.5430    -1.8460    22.1030 ca         1 Q36      -0.071000
     10 N2          13.4260    -4.4520    20.7490 n1         1 Q36      -0.448000
     11 C14         13.1540    -3.3920    21.1140 cg         1 Q36       0.321000
     12 C12         13.7480    -1.0470    21.4650 ca         1 Q36      -0.065000
     13 C11         13.3970     0.2200    21.9070 ca         1 Q36      -0.111000
     14 C9          11.1970    -0.5760    22.5490 ca         1 Q36      -0.093300
     15 C1           9.8160    -0.3200    23.1260 c3         1 Q36      -0.089400
     16 C            9.8670     0.2070    24.5600 c3         1 Q36      -0.076100
     17 C2           9.0820     0.6570    22.2010 c          1 Q36       0.604100
     18 O            9.1070     1.8670    22.3730 o          1 Q36      -0.574100
     19 C3           7.7500     0.6630    20.1010 ca         1 Q36      -0.080000
     20 H1           8.9020     2.4760    20.0940 h4         1 Q36       0.044100
     21 H2           5.9650     2.3720    17.2060 h4         1 Q36       0.022100
     22 H3           5.2520     0.1050    17.9050 ha         1 Q36       0.122000
     23 H4           7.0980    -2.1310    19.7840 hc         1 Q36       0.046367
     24 H5           6.0460    -1.4080    20.9950 hc         1 Q36       0.046367
     25 H6           5.4250    -1.7480    19.3720 hc         1 Q36       0.046367
     26 H7          11.8770     1.4490    22.7790 ha         1 Q36       0.135000
     27 H8          10.8320    -2.6590    22.1710 ha         1 Q36       0.119000
     28 H9          14.7270    -1.2390    21.0460 ha         1 Q36       0.129000
     29 H10         14.1090     1.0310    21.8320 ha         1 Q36       0.126000
     30 H11          9.2740    -1.2670    23.1180 hc         1 Q36       0.057700
     31 H12         10.3880    -0.5090    25.1960 hc         1 Q36       0.050033
     32 H13         10.3910     1.1610    24.6100 hc         1 Q36       0.050033
     33 H14          8.8580     0.3510    24.9500 hc         1 Q36       0.050033
     34 H15          8.4300    -0.9580    21.1780 hn         1 Q36       0.152000
     35 N            8.4440     0.0500    21.1600 ns         1 Q36      -0.149000
@<TRIPOS>BOND
     1     1     2 ar  
     2     1     3 ar  
     3     2    19 ar  
     4     2    20 1   
     5     3     4 ar  
     6     3    21 1   
     7     4     5 ar  
     8     4    22 1   
     9     5     6 1   
    10     5    19 ar  
    11     6    23 1   
    12     6    24 1   
    13     6    25 1   
    14     7    13 ar  
    15     7    14 ar  
    16     7    26 1   
    17     8     9 ar  
    18     8    11 1   
    19     8    12 ar  
    20     9    14 ar  
    21     9    27 1   
    22    10    11 3   
    23    12    13 ar  
    24    12    28 1   
    25    13    29 1   
    26    14    15 1   
    27    15    16 1   
    28    15    17 1   
    29    15    30 1   
    30    16    31 1   
    31    16    32 1   
    32    16    33 1   
    33    17    18 2   
    34    17    35 1   
    35    19    35 1   
    36    34    35 1   
@<TRIPOS>SUBSTRUCTURE
     1 Q36         1 TEMP              0 ****  ****    0 ROOT
