@<TRIPOS>MOLECULE
Q39
   45    47     1     0     0
SMALL
No Charge or Current Charge


@<TRIPOS>ATOM
      1 C1         -22.5380    11.6160    34.5730 c          1 Q39       0.605100
      2 C10        -21.1060    16.4590    38.3840 cc         1 Q39      -0.231300
      3 C11        -23.3320    15.5350    38.0780 cc         1 Q39       0.460700
      4 C12        -21.8480    17.0090    37.3400 cd         1 Q39       0.367500
      5 C13        -24.5940    14.7300    38.1290 c3         1 Q39      -0.139400
      6 C14        -21.3570    18.0460    36.4520 cd         1 Q39      -0.235500
      7 C15        -20.2480    19.8390    35.0710 cd         1 Q39      -0.237000
      8 C16        -21.5120    19.5240    34.6490 cc         1 Q39      -0.134000
      9 C17        -22.1400    18.5170    35.4220 cc         1 Q39      -0.102000
     10 C2         -21.3180    12.2110    35.3080 c6         1 Q39      -0.140700
     11 C3         -21.1940    11.7520    36.7730 c6         1 Q39      -0.086400
     12 C4         -19.9060    12.3010    37.4250 c6         1 Q39       0.099000
     13 C5         -19.9640    14.3060    35.8880 c6         1 Q39       0.099000
     14 C6         -21.2310    13.7450    35.2000 c6         1 Q39      -0.086400
     15 C8         -18.6040    15.9560    38.0790 c3         1 Q39      -0.150400
     16 C9         -19.6970    16.7060    38.8820 c3         1 Q39       0.006900
     17 N1         -22.2840    10.8720    33.4760 nt         1 Q39      -0.608000
     18 N2         -19.6980    13.7740    37.2660 n          1 Q39      -0.408800
     19 N3         -23.1160    16.4720    37.1730 nd         1 Q39      -0.655000
     20 O1         -23.6870    11.7980    34.9390 o          1 Q39      -0.616100
     21 O2         -18.2480    13.8030    39.0500 o          1 Q39      -0.620100
     22 S1         -22.0510    15.2500    39.2170 ss         1 Q39      -0.031400
     23 S2         -19.7840    18.8720    36.4830 ss         1 Q39       0.170000
     24 H1         -25.4420    15.3050    37.7410 hc         1 Q39       0.068033
     25 H2         -24.4910    13.8210    37.5250 hc         1 Q39       0.068033
     26 H3         -24.8270    14.4340    39.1580 hc         1 Q39       0.068033
     27 H4         -19.5600    20.5670    34.6570 h4         1 Q39       0.150000
     28 H5         -22.0040    19.9920    33.8000 ha         1 Q39       0.135000
     29 H6         -23.1450    18.1700    35.1960 ha         1 Q39       0.153000
     30 H7         -20.4340    11.8220    34.7810 hc         1 Q39       0.046700
     31 H8         -22.0650    12.1020    37.3450 hc         1 Q39       0.064200
     32 H9         -21.2000    10.6550    36.8320 hc         1 Q39       0.064200
     33 H10        -19.9310    12.0430    38.4940 h1         1 Q39       0.055950
     34 H11        -19.0380    11.7820    36.9910 h1         1 Q39       0.055950
     35 H12        -19.0890    14.0820    35.2610 h1         1 Q39       0.055950
     36 H13        -20.0770    15.3960    35.9060 h1         1 Q39       0.055950
     37 H14        -21.2470    14.0570    34.1460 hc         1 Q39       0.064200
     38 H15        -22.1190    14.1910    35.6660 hc         1 Q39       0.064200
     39 H16        -17.6310    16.2080    38.5150 hc         1 Q39       0.066700
     40 H17        -18.6360    16.3100    37.0480 hc         1 Q39       0.066700
     41 H18        -19.6280    16.3780    39.9270 hc         1 Q39       0.067200
     42 H19        -19.4750    17.7770    38.9240 hc         1 Q39       0.067200
     43 H20        -23.0550    10.4670    32.9650 hn         1 Q39       0.315000
     44 H21        -21.3330    10.7250    33.1720 hn         1 Q39       0.315000
     45 C7         -18.8000    14.4290    38.1530 c          1 Q39       0.604100
@<TRIPOS>BOND
     1     1    10 1   
     2     1    17 1   
     3     1    20 2   
     4     2     4 2   
     5     2    16 1   
     6     2    22 1   
     7     3     5 1   
     8     3    19 2   
     9     3    22 1   
    10     4     6 1   
    11     4    19 1   
    12     5    24 1   
    13     5    25 1   
    14     5    26 1   
    15     6     9 2   
    16     6    23 1   
    17     7     8 2   
    18     7    23 1   
    19     7    27 1   
    20     8     9 1   
    21     8    28 1   
    22     9    29 1   
    23    10    11 1   
    24    10    14 1   
    25    10    30 1   
    26    11    12 1   
    27    11    31 1   
    28    11    32 1   
    29    12    18 1   
    30    12    33 1   
    31    12    34 1   
    32    13    14 1   
    33    13    18 1   
    34    13    35 1   
    35    13    36 1   
    36    14    37 1   
    37    14    38 1   
    38    15    16 1   
    39    15    39 1   
    40    15    40 1   
    41    15    45 1   
    42    16    41 1   
    43    16    42 1   
    44    17    43 1   
    45    17    44 1   
    46    18    45 1   
    47    21    45 2   
@<TRIPOS>SUBSTRUCTURE
     1 Q39         1 TEMP              0 ****  ****    0 ROOT
