@<TRIPOS>MOLECULE
Q39
   45    47     1     0     0
SMALL
abcg2


@<TRIPOS>ATOM
      1 C1         -22.6140    11.9580    35.0100 c          1 Q39       0.605100
      2 C10        -21.2400    16.3350    38.3270 cc         1 Q39      -0.231300
      3 C11        -23.4850    15.4120    37.9100 cc         1 Q39       0.460700
      4 C12        -21.9230    16.8730    37.2600 cd         1 Q39       0.367500
      5 C13        -24.7480    14.6210    37.9010 c3         1 Q39      -0.139400
      6 C14        -21.4940    17.9180    36.3400 cd         1 Q39      -0.235500
      7 C15        -20.3050    19.6860    35.0370 cd         1 Q39      -0.237000
      8 C16        -21.5700    19.4510    34.5750 cc         1 Q39      -0.134000
      9 C17        -22.2450    18.4470    35.3130 cc         1 Q39      -0.102000
     10 C2         -21.1920    12.3110    35.4110 c6         1 Q39      -0.140700
     11 C3         -20.8590    11.8020    36.8160 c6         1 Q39      -0.086400
     12 C4         -19.4510    12.2270    37.2220 c6         1 Q39       0.099000
     13 C5         -19.5840    14.2160    35.8050 c6         1 Q39       0.099000
     14 C6         -20.9900    13.8320    35.3520 c6         1 Q39      -0.086400
     15 C8         -18.7340    15.8850    38.1340 c3         1 Q39      -0.150400
     16 C9         -19.8740    16.6200    38.8720 c3         1 Q39       0.006900
     17 N1         -22.7570    11.4010    33.7930 nt         1 Q39      -0.608000
     18 N2         -19.2920    13.6800    37.1340 n          1 Q39      -0.408800
     19 N3         -23.1860    16.3380    37.0520 nd         1 Q39      -0.655000
     20 O1         -23.5760    12.1860    35.7440 o          1 Q39      -0.616100
     21 O2         -18.7160    13.8350    39.3190 o          1 Q39      -0.620100
     22 S1         -22.2240    15.1190    39.0690 ss         1 Q39      -0.031400
     23 S2         -19.9310    18.6810    36.3800 ss         1 Q39       0.170000
     24 H1         -25.5370    15.2020    37.4240 hc         1 Q39       0.068033
     25 H2         -24.6010    13.7000    37.3320 hc         1 Q39       0.068033
     26 H3         -25.0580    14.3540    38.9110 hc         1 Q39       0.068033
     27 H4         -19.5730    20.3880    34.6720 h4         1 Q39       0.150000
     28 H5         -22.0030    19.9760    33.7360 ha         1 Q39       0.135000
     29 H6         -23.2510    18.1140    35.1060 ha         1 Q39       0.153000
     30 H7         -20.4990    11.8480    34.7010 hc         1 Q39       0.046700
     31 H8         -21.5820    12.2050    37.5280 hc         1 Q39       0.064200
     32 H9         -20.9260    10.7130    36.8530 hc         1 Q39       0.064200
     33 H10        -19.2300    11.9240    38.2390 h1         1 Q39       0.055950
     34 H11        -18.7160    11.7630    36.5550 h1         1 Q39       0.055950
     35 H12        -18.8480    13.8090    35.1030 h1         1 Q39       0.055950
     36 H13        -19.4860    15.2940    35.7980 h1         1 Q39       0.055950
     37 H14        -21.1410    14.1970    34.3340 hc         1 Q39       0.064200
     38 H15        -21.7250    14.3200    35.9930 hc         1 Q39       0.064200
     39 H16        -17.7980    16.1140    38.6450 hc         1 Q39       0.066700
     40 H17        -18.6450    16.2510    37.1180 hc         1 Q39       0.066700
     41 H18        -19.8420    16.3350    39.9240 hc         1 Q39       0.067200
     42 H19        -19.6770    17.6920    38.8370 hc         1 Q39       0.067200
     43 H20        -23.6780    11.1740    33.4510 hn         1 Q39       0.315000
     44 H21        -21.9660    11.2190    33.1980 hn         1 Q39       0.315000
     45 C7         -18.9100    14.3810    38.2250 c          1 Q39       0.604100
@<TRIPOS>BOND
     1     1    10 1   
     2     1    17 1   
     3     1    20 2   
     4     2     4 2   
     5     2    16 1   
     6     2    22 1   
     7     3     5 1   
     8     3    19 2   
     9     3    22 1   
    10     4     6 1   
    11     4    19 1   
    12     5    24 1   
    13     5    25 1   
    14     5    26 1   
    15     6     9 2   
    16     6    23 1   
    17     7     8 2   
    18     7    23 1   
    19     7    27 1   
    20     8     9 1   
    21     8    28 1   
    22     9    29 1   
    23    10    11 1   
    24    10    14 1   
    25    10    30 1   
    26    11    12 1   
    27    11    31 1   
    28    11    32 1   
    29    12    18 1   
    30    12    33 1   
    31    12    34 1   
    32    13    14 1   
    33    13    18 1   
    34    13    35 1   
    35    13    36 1   
    36    14    37 1   
    37    14    38 1   
    38    15    16 1   
    39    15    39 1   
    40    15    40 1   
    41    15    45 1   
    42    16    41 1   
    43    16    42 1   
    44    17    43 1   
    45    17    44 1   
    46    18    45 1   
    47    21    45 2   
@<TRIPOS>SUBSTRUCTURE
     1 Q39         1 TEMP              0 ****  ****    0 ROOT
