@<TRIPOS>MOLECULE
Q3A
   55    59     1     0     0
SMALL
No Charge or Current Charge


@<TRIPOS>ATOM
      1 C16         12.7100    25.1360    19.2240 ca         1 Q3A       0.137000
      2 C12         12.3550    27.4760    23.2380 c5         1 Q3A       0.147600
      3 C11         12.9060    26.0270    22.9760 c5         1 Q3A      -0.060100
      4 C10         12.7500    25.9960    21.4850 ca         1 Q3A      -0.111300
      5 C15         12.4450    26.4350    18.7410 ca         1 Q3A      -0.116000
      6 C14         12.3340    27.5150    19.6390 ca         1 Q3A      -0.102000
      7 C13         12.4840    27.2610    21.0080 ca         1 Q3A       0.112100
      8 C6          14.8940    22.6170    24.9320 cc         1 Q3A       0.405900
      9 C9          12.8710    24.8950    20.6090 ca         1 Q3A      -0.104300
     10 C1          17.4970    22.2860    29.2640 ca         1 Q3A       0.383300
     11 C2          18.2940    21.8660    28.1880 ca         1 Q3A      -0.180000
     12 C7          15.1470    23.2700    22.7020 cd         1 Q3A       0.813400
     13 C3          17.8640    22.1200    26.8780 ca         1 Q3A      -0.064000
     14 C4          16.6510    22.8030    26.6810 ca         1 Q3A      -0.109000
     15 C5          16.1810    23.0020    25.2960 cd         1 Q3A      -0.115000
     16 O2          19.5770    26.4630    25.0300 o          1 Q3A      -0.519000
     17 O1          18.4010    25.0540    26.8010 o          1 Q3A      -0.519000
     18 C20         20.5290    24.0910    25.5580 c3         1 Q3A      -0.343100
     19 C18         18.0630    24.4200    24.1730 cc         1 Q3A      -0.192500
     20 C17         16.9130    23.6410    24.2390 cd         1 Q3A       0.042000
     21 C21         15.9050    23.1820    27.8310 ca         1 Q3A       0.432300
     22 C22         14.6010    23.9630    27.7460 c3         1 Q3A      -0.146400
     23 N4          16.3230    22.9290    29.0940 nb         1 Q3A      -0.678000
     24 C           17.9190    22.0360    30.6980 c3         1 Q3A      -0.146400
     25 N3          18.2570    24.8090    22.8490 nc         1 Q3A      -0.451300
     26 C19         17.2540    24.3240    22.1260 cd         1 Q3A       0.333700
     27 N2          16.4700    23.5760    22.9630 na         1 Q3A      -0.193300
     28 N           14.3690    22.7720    23.6530 nc         1 Q3A      -0.781000
     29 N1          14.6010    23.3890    21.4650 nu         1 Q3A      -0.935100
     30 C8          13.1700    23.4970    21.1380 c3         1 Q3A       0.298100
     31 F           12.8190    24.1210    18.3370 f          1 Q3A      -0.190000
     32 O           12.4120    28.2220    21.9760 os         1 Q3A      -0.326100
     33 H12         12.9180    28.0110    24.0140 h1         1 Q3A       0.060200
     34 H11         11.3040    27.4310    23.5530 h1         1 Q3A       0.060200
     35 H10         12.3210    25.2620    23.4970 hc         1 Q3A       0.074700
     36 H9          13.9520    25.9310    23.2850 hc         1 Q3A       0.074700
     37 H14         12.3310    26.6010    17.6730 ha         1 Q3A       0.137000
     38 H13         12.1340    28.5230    19.2830 ha         1 Q3A       0.139000
     39 H5          14.2130    22.1500    25.6310 h4         1 Q3A       0.033100
     40 H3          19.2280    21.3410    28.3680 ha         1 Q3A       0.121000
     41 H4          18.4440    21.7650    26.0290 ha         1 Q3A       0.113000
     42 H18         21.2200    24.4880    26.3080 h1         1 Q3A       0.100367
     43 H17         20.2130    23.0800    25.8250 h1         1 Q3A       0.100367
     44 H16         20.9890    24.1010    24.5650 h1         1 Q3A       0.100367
     45 H21         14.4350    24.5660    28.6470 hc         1 Q3A       0.054700
     46 H20         14.6030    24.6540    26.8960 hc         1 Q3A       0.054700
     47 H19         13.7450    23.2870    27.6400 hc         1 Q3A       0.054700
     48 H1          18.3700    22.9350    31.1320 hc         1 Q3A       0.051700
     49 H2          17.0630    21.7520    31.3220 hc         1 Q3A       0.051700
     50 H           18.6560    21.2270    30.7610 hc         1 Q3A       0.051700
     51 H15         17.0570    24.4860    21.0730 h5         1 Q3A       0.072800
     52 H6          15.2600    23.6040    20.7260 hn         1 Q3A       0.515000
     53 H7          12.5330    23.3060    22.0120 h1         1 Q3A       0.069700
     54 H8          12.8990    22.7420    20.3870 h1         1 Q3A       0.069700
     55 S           19.0880    25.1620    25.5100 sy         1 Q3A       1.118100
@<TRIPOS>BOND
     1     1     5 ar  
     2     1     9 ar  
     3     1    31 1   
     4     2     3 1   
     5     2    32 1   
     6     2    33 1   
     7     2    34 1   
     8     3     4 1   
     9     3    35 1   
    10     3    36 1   
    11     4     7 ar  
    12     4     9 ar  
    13     5     6 ar  
    14     5    37 1   
    15     6     7 ar  
    16     6    38 1   
    17     7    32 1   
    18     8    15 2   
    19     8    28 1   
    20     8    39 1   
    21     9    30 1   
    22    10    11 ar  
    23    10    23 ar  
    24    10    24 1   
    25    11    13 ar  
    26    11    40 1   
    27    12    27 1   
    28    12    28 2   
    29    12    29 1   
    30    13    14 ar  
    31    13    41 1   
    32    14    15 1   
    33    14    21 ar  
    34    15    20 1   
    35    16    55 2   
    36    17    55 2   
    37    18    42 1   
    38    18    43 1   
    39    18    44 1   
    40    18    55 1   
    41    19    20 2   
    42    19    25 1   
    43    19    55 1   
    44    20    27 1   
    45    21    22 1   
    46    21    23 ar  
    47    22    45 1   
    48    22    46 1   
    49    22    47 1   
    50    24    48 1   
    51    24    49 1   
    52    24    50 1   
    53    25    26 2   
    54    26    27 1   
    55    26    51 1   
    56    29    30 1   
    57    29    52 1   
    58    30    53 1   
    59    30    54 1   
@<TRIPOS>SUBSTRUCTURE
     1 Q3A         1 TEMP              0 ****  ****    0 ROOT
