@<TRIPOS>MOLECULE
Q3A
   55    59     1     0     0
SMALL
bcc


@<TRIPOS>ATOM
      1 C16         13.4230    26.3650    20.4500 ca         1 Q3A       0.101900
      2 C12         10.0820    24.9930    23.3250 c5         1 Q3A       0.124400
      3 C11         11.2900    24.2170    22.7770 c5         1 Q3A      -0.060100
      4 C10         11.9570    25.2600    21.9320 ca         1 Q3A      -0.111300
      5 C15         12.8290    27.5820    20.7060 ca         1 Q3A      -0.134000
      6 C14         11.7640    27.6560    21.6020 ca         1 Q3A      -0.120000
      7 C13         11.3490    26.4820    22.2000 ca         1 Q3A       0.112100
      8 C6          15.0610    23.5820    24.6290 cc         1 Q3A       0.471200
      9 C9          13.0200    25.1750    21.0510 ca         1 Q3A      -0.104300
     10 C1          17.3840    23.2330    29.0910 ca         1 Q3A       0.448600
     11 C2          17.3630    22.0940    28.3000 ca         1 Q3A      -0.263300
     12 C7          15.4910    23.7990    22.3990 cd         1 Q3A       0.813400
     13 C3          17.0240    22.2230    26.9610 ca         1 Q3A      -0.082000
     14 C4          16.7350    23.4740    26.4450 ca         1 Q3A      -0.174300
     15 C5          16.3660    23.6310    25.0230 cd         1 Q3A      -0.180300
     16 O2          21.1540    24.5090    24.3330 o          1 Q3A      -0.589800
     17 O1          19.4980    24.6230    26.2140 o          1 Q3A      -0.589800
     18 C20         20.3310    22.2610    25.4060 c3         1 Q3A      -0.232300
     19 C18         18.6940    23.9000    23.8260 cc         1 Q3A      -0.192500
     20 C17         17.3200    23.7930    23.9850 cd         1 Q3A       0.092700
     21 C21         16.7730    24.5700    27.3160 ca         1 Q3A       0.497600
     22 C22         16.4650    25.9500    26.8250 c3         1 Q3A      -0.146400
     23 N4          17.0840    24.4350    28.5970 nb         1 Q3A      -0.678000
     24 C           17.7340    23.1730    30.5470 c3         1 Q3A      -0.146400
     25 N3          19.0260    23.9900    22.5110 nc         1 Q3A      -0.451300
     26 C19         17.9210    23.9600    21.8410 cd         1 Q3A       0.333700
     27 N2          16.8420    23.8460    22.6830 na         1 Q3A      -0.244000
     28 N           14.6220    23.6770    23.3550 nc         1 Q3A      -0.781000
     29 N1          15.1140    23.8700    21.1210 nu         1 Q3A      -0.879900
     30 C8          13.7160    23.8760    20.7400 c3         1 Q3A       0.298100
     31 F           14.4430    26.3150    19.5670 f          1 Q3A      -0.154900
     32 O           10.3440    26.3890    23.0960 os         1 Q3A      -0.302900
     33 H12          9.9220    24.8450    24.3920 h1         1 Q3A       0.060200
     34 H11          9.1650    24.7210    22.7960 h1         1 Q3A       0.060200
     35 H10         10.9740    23.3370    22.2160 hc         1 Q3A       0.074700
     36 H9          11.9650    23.8770    23.5650 hc         1 Q3A       0.074700
     37 H14         13.1850    28.4730    20.2050 ha         1 Q3A       0.155000
     38 H13         11.2860    28.6030    21.8140 ha         1 Q3A       0.157000
     39 H5          14.2860    23.4590    25.3760 h4         1 Q3A       0.033100
     40 H3          17.6020    21.1260    28.7200 ha         1 Q3A       0.139000
     41 H4          16.9840    21.3500    26.3200 ha         1 Q3A       0.131000
     42 H18         21.1450    22.2550    26.1310 h1         1 Q3A       0.100367
     43 H17         19.4470    21.7990    25.8390 h1         1 Q3A       0.100367
     44 H16         20.6300    21.7350    24.5020 h1         1 Q3A       0.100367
     45 H21         16.6030    26.6750    27.6250 hc         1 Q3A       0.054700
     46 H20         17.1150    26.2260    25.9940 hc         1 Q3A       0.054700
     47 H19         15.4370    26.0300    26.4670 hc         1 Q3A       0.054700
     48 H1          18.5650    23.8430    30.7730 hc         1 Q3A       0.051700
     49 H2          16.8900    23.4910    31.1600 hc         1 Q3A       0.051700
     50 H           18.0150    22.1660    30.8520 hc         1 Q3A       0.051700
     51 H15         17.8410    24.0150    20.7680 h5         1 Q3A       0.072800
     52 H6          15.7930    23.9870    20.3890 hn         1 Q3A       0.459800
     53 H7          13.2040    23.0530    21.2360 h1         1 Q3A       0.069700
     54 H8          13.6850    23.6710    19.6710 h1         1 Q3A       0.069700
     55 S           19.9840    23.9590    25.0100 sy         1 Q3A       1.148900
@<TRIPOS>BOND
     1     1     5 ar  
     2     1     9 ar  
     3     1    31 1   
     4     2     3 1   
     5     2    32 1   
     6     2    33 1   
     7     2    34 1   
     8     3     4 1   
     9     3    35 1   
    10     3    36 1   
    11     4     7 ar  
    12     4     9 ar  
    13     5     6 ar  
    14     5    37 1   
    15     6     7 ar  
    16     6    38 1   
    17     7    32 1   
    18     8    15 2   
    19     8    28 1   
    20     8    39 1   
    21     9    30 1   
    22    10    11 ar  
    23    10    23 ar  
    24    10    24 1   
    25    11    13 ar  
    26    11    40 1   
    27    12    27 1   
    28    12    28 2   
    29    12    29 1   
    30    13    14 ar  
    31    13    41 1   
    32    14    15 1   
    33    14    21 ar  
    34    15    20 1   
    35    16    55 2   
    36    17    55 2   
    37    18    42 1   
    38    18    43 1   
    39    18    44 1   
    40    18    55 1   
    41    19    20 2   
    42    19    25 1   
    43    19    55 1   
    44    20    27 1   
    45    21    22 1   
    46    21    23 ar  
    47    22    45 1   
    48    22    46 1   
    49    22    47 1   
    50    24    48 1   
    51    24    49 1   
    52    24    50 1   
    53    25    26 2   
    54    26    27 1   
    55    26    51 1   
    56    29    30 1   
    57    29    52 1   
    58    30    53 1   
    59    30    54 1   
@<TRIPOS>SUBSTRUCTURE
     1 Q3A         1 TEMP              0 ****  ****    0 ROOT
