@<TRIPOS>MOLECULE
Q3C
   19    20     1     0     0
SMALL
abcg2


@<TRIPOS>ATOM
      1 O13          3.1400    -1.4890    -0.0570 o          1 Q3C      -0.714500
      2 C11          2.8470    -0.2800    -0.0330 c          1 Q3C       0.718600
      3 O12          3.6320     0.6860    -0.0180 o          1 Q3C      -0.714500
      4 C7           1.3630     0.0570    -0.0210 ca         1 Q3C      -0.180600
      5 C3           0.4040    -0.9190    -0.0210 ca         1 Q3C      -0.068000
      6 C9           0.9190     1.4010    -0.0100 ca         1 Q3C       0.383900
      7 N5          -0.3340     1.7720    -0.0000 nb         1 Q3C      -0.716000
      8 C2          -1.2880     0.8090     0.0000 ca         1 Q3C       0.255000
      9 C6          -2.6490     1.1930     0.0100 ca         1 Q3C      -0.086000
     10 C10         -3.6350     0.2430     0.0090 ca         1 Q3C      -0.132000
     11 C8          -3.3100    -1.1300    -0.0010 ca         1 Q3C      -0.141000
     12 C4          -2.0010    -1.5290    -0.0100 ca         1 Q3C      -0.085000
     13 C1          -0.9620    -0.5700    -0.0100 ca         1 Q3C      -0.091000
     14 H2           0.6900    -1.9640    -0.0290 ha         1 Q3C       0.134000
     15 H3           1.6570     2.1950    -0.0100 h4         1 Q3C       0.034100
     16 H4          -2.8880     2.2490     0.0180 ha         1 Q3C       0.113000
     17 H5          -4.6750     0.5430     0.0170 ha         1 Q3C       0.092000
     18 H6          -4.1020    -1.8670    -0.0010 ha         1 Q3C       0.093000
     19 H7          -1.7460    -2.5820    -0.0180 ha         1 Q3C       0.105000
@<TRIPOS>BOND
     1     1     2 1   
     2     2     3 1   
     3     2     4 1   
     4     4     5 ar  
     5     4     6 ar  
     6     5    13 ar  
     7     5    14 1   
     8     6     7 ar  
     9     6    15 1   
    10     7     8 ar  
    11     8     9 ar  
    12     8    13 ar  
    13     9    10 ar  
    14     9    16 1   
    15    10    11 ar  
    16    10    17 1   
    17    11    12 ar  
    18    11    18 1   
    19    12    13 ar  
    20    12    19 1   
@<TRIPOS>SUBSTRUCTURE
     1 Q3C         1 TEMP              0 ****  ****    0 ROOT
