@<TRIPOS>MOLECULE
Q3C
   19    20     1     0     0
SMALL
No Charge or Current Charge


@<TRIPOS>ATOM
      1 O13          3.1730    -1.4500    -0.0420 o          1 Q3C      -0.714500
      2 C11          2.8450    -0.2730    -0.0320 c          1 Q3C       0.718600
      3 O12          3.6530     0.6440    -0.0310 o          1 Q3C      -0.714500
      4 C7           1.3800     0.0600    -0.0210 ca         1 Q3C      -0.180600
      5 C3           0.3850    -0.9400    -0.0220 ca         1 Q3C      -0.068000
      6 C9           0.9700     1.4040    -0.0100 ca         1 Q3C       0.383900
      7 N5          -0.3320     1.7860     0.0010 nb         1 Q3C      -0.716000
      8 C2          -1.2910     0.8310     0.0000 ca         1 Q3C       0.255000
      9 C6          -2.6500     1.2010     0.0110 ca         1 Q3C      -0.086000
     10 C10         -3.6660     0.2280     0.0100 ca         1 Q3C      -0.132000
     11 C8          -3.3310    -1.1350    -0.0010 ca         1 Q3C      -0.141000
     12 C4          -1.9830    -1.5250    -0.0120 ca         1 Q3C      -0.085000
     13 C1          -0.9660    -0.5500    -0.0110 ca         1 Q3C      -0.091000
     14 H2           0.6530    -1.9950    -0.0310 ha         1 Q3C       0.134000
     15 H3           1.6960     2.2170    -0.0080 h4         1 Q3C       0.034100
     16 H4          -2.9180     2.2540     0.0200 ha         1 Q3C       0.113000
     17 H5          -4.7100     0.5330     0.0190 ha         1 Q3C       0.092000
     18 H6          -4.1160    -1.8880    -0.0020 ha         1 Q3C       0.093000
     19 H7          -1.7300    -2.5830    -0.0210 ha         1 Q3C       0.105000
@<TRIPOS>BOND
     1     1     2 1   
     2     2     3 1   
     3     2     4 1   
     4     4     5 ar  
     5     4     6 ar  
     6     5    13 ar  
     7     5    14 1   
     8     6     7 ar  
     9     6    15 1   
    10     7     8 ar  
    11     8     9 ar  
    12     8    13 ar  
    13     9    10 ar  
    14     9    16 1   
    15    10    11 ar  
    16    10    17 1   
    17    11    12 ar  
    18    11    18 1   
    19    12    13 ar  
    20    12    19 1   
@<TRIPOS>SUBSTRUCTURE
     1 Q3C         1 TEMP              0 ****  ****    0 ROOT
