@<TRIPOS>MOLECULE
Q3D
   56    61     1     0     0
SMALL
abcg2


@<TRIPOS>ATOM
      1 N1         -14.2970    23.6530   -23.7130 nc         1 Q3D      -0.781000
      2 C2         -11.8080    27.4680   -21.1350 ca         1 Q3D      -0.103000
      3 C3         -11.2740    26.4370   -21.8840 ca         1 Q3D       0.116100
      4 C5         -11.0060    24.2890   -22.7820 c5         1 Q3D      -0.061100
      5 O2         -18.9510    24.7660   -26.7080 o          1 Q3D      -0.521500
      6 S          -19.5760    24.0910   -25.5760 sy         1 Q3D       1.116100
      7 O1         -20.6830    24.7500   -24.8890 o          1 Q3D      -0.521500
      8 C23        -20.1570    22.4970   -26.1070 c3         1 Q3D      -0.341100
      9 C22        -18.3470    23.7660   -24.3710 cc         1 Q3D      -0.191500
     10 C20        -16.9650    23.6990   -24.4740 cd         1 Q3D       0.047000
     11 C11        -15.9510    23.7220   -25.4700 cd         1 Q3D      -0.115000
     12 C12        -16.2300    23.6990   -26.9140 ca         1 Q3D      -0.077000
     13 C19        -16.8380    22.5990   -27.5030 ca         1 Q3D       0.349900
     14 N2         -17.1100    22.5040   -28.7950 nb         1 Q3D      -0.672000
     15 C15        -16.7730    23.5100   -29.6010 ca         1 Q3D       0.403300
     16 C16        -17.1160    23.3420   -31.0300 cx         1 Q3D      -0.188000
     17 C18        -16.1650    23.7920   -32.1110 cx         1 Q3D      -0.119900
     18 C17        -17.4410    24.5290   -31.8980 cx         1 Q3D      -0.119900
     19 C14        -16.1240    24.6440   -29.1110 ca         1 Q3D      -0.151000
     20 C13        -15.8550    24.7370   -27.7590 ca         1 Q3D      -0.034000
     21 C10        -14.6660    23.7090   -25.0100 cc         1 Q3D       0.405900
     22 N4         -18.7450    23.6520   -23.0760 nc         1 Q3D      -0.456300
     23 C21        -17.6750    23.5360   -22.3620 cd         1 Q3D       0.337700
     24 N3         -16.5530    23.5690   -23.1540 na         1 Q3D      -0.195300
     25 C9         -15.2170    23.5630   -22.8020 cd         1 Q3D       0.815400
     26 N          -14.9080    23.4540   -21.5090 nu         1 Q3D      -0.934100
     27 C8         -13.5330    23.4880   -21.0500 c3         1 Q3D       0.297100
     28 C7         -12.9220    24.8630   -21.0920 ca         1 Q3D      -0.104300
     29 C          -13.4460    25.9100   -20.3370 ca         1 Q3D       0.137000
     30 F          -14.5180    25.6560   -19.5580 f          1 Q3D      -0.189000
     31 C4         -11.8130    25.1570   -21.8660 ca         1 Q3D      -0.114300
     32 C6          -9.9410    25.2740   -23.3030 c5         1 Q3D       0.149600
     33 O          -10.2060    26.5540   -22.6980 os         1 Q3D      -0.328100
     34 C1         -12.9200    27.1840   -20.3450 ca         1 Q3D      -0.114000
     35 H1         -11.3860    28.4640   -21.1550 ha         1 Q3D       0.139000
     36 H3         -11.6240    23.8830   -23.5840 hc         1 Q3D       0.074200
     37 H2         -10.5520    23.4460   -22.2600 hc         1 Q3D       0.074200
     38 H20        -20.5560    21.9590   -25.2500 h1         1 Q3D       0.102367
     39 H19        -20.9440    22.6650   -26.8410 h1         1 Q3D       0.102367
     40 H21        -19.3440    21.9360   -26.5590 h1         1 Q3D       0.102367
     41 H17        -17.1090    21.7410   -26.8930 h4         1 Q3D       0.010100
     42 H12        -17.6690    22.4330   -31.2320 hc         1 Q3D       0.100700
     43 H15        -16.0700    23.1570   -32.9820 hc         1 Q3D       0.074200
     44 H16        -15.2420    24.2650   -31.7990 hc         1 Q3D       0.074200
     45 H13        -17.3950    25.5110   -31.4440 hc         1 Q3D       0.074200
     46 H14        -18.2360    24.4100   -32.6220 hc         1 Q3D       0.074200
     47 H11        -15.8410    25.4530   -29.7720 ha         1 Q3D       0.124000
     48 H10        -15.3710    25.6190   -27.3580 ha         1 Q3D       0.120000
     49 H9         -13.8490    23.7260   -25.7220 h4         1 Q3D       0.031100
     50 H18        -17.6480    23.4300   -21.2900 h5         1 Q3D       0.072800
     51 H8         -15.6270    23.4300   -20.8070 hn         1 Q3D       0.515000
     52 H6         -13.5360    23.0990   -20.0320 h1         1 Q3D       0.070700
     53 H7         -12.9390    22.8030   -21.6530 h1         1 Q3D       0.070700
     54 H4          -8.9310    24.9690   -23.0280 h1         1 Q3D       0.059200
     55 H5          -9.9810    25.3930   -24.3860 h1         1 Q3D       0.059200
     56 H          -13.3690    27.9570   -19.7350 ha         1 Q3D       0.137000
@<TRIPOS>BOND
     1     1    21 1   
     2     1    25 2   
     3     2     3 ar  
     4     2    34 ar  
     5     2    35 1   
     6     3    31 ar  
     7     3    33 1   
     8     4    31 1   
     9     4    32 1   
    10     4    36 1   
    11     4    37 1   
    12     5     6 2   
    13     6     7 2   
    14     6     8 1   
    15     6     9 1   
    16     8    38 1   
    17     8    39 1   
    18     8    40 1   
    19     9    10 2   
    20     9    22 1   
    21    10    11 1   
    22    10    24 1   
    23    11    12 1   
    24    11    21 2   
    25    12    13 ar  
    26    12    20 ar  
    27    13    14 ar  
    28    13    41 1   
    29    14    15 ar  
    30    15    16 1   
    31    15    19 ar  
    32    16    17 1   
    33    16    18 1   
    34    16    42 1   
    35    17    18 1   
    36    17    43 1   
    37    17    44 1   
    38    18    45 1   
    39    18    46 1   
    40    19    20 ar  
    41    19    47 1   
    42    20    48 1   
    43    21    49 1   
    44    22    23 2   
    45    23    24 1   
    46    23    50 1   
    47    24    25 1   
    48    25    26 1   
    49    26    27 1   
    50    26    51 1   
    51    27    28 1   
    52    27    52 1   
    53    27    53 1   
    54    28    29 ar  
    55    28    31 ar  
    56    29    30 1   
    57    29    34 ar  
    58    32    33 1   
    59    32    54 1   
    60    32    55 1   
    61    34    56 1   
@<TRIPOS>SUBSTRUCTURE
     1 Q3D         1 TEMP              0 ****  ****    0 ROOT
