@<TRIPOS>MOLECULE
Q3D
   56    61     1     0     0
SMALL
No Charge or Current Charge


@<TRIPOS>ATOM
      1 N1         -13.8580    23.5430   -24.6850 nc         1 Q3D      -0.781000
      2 C2         -12.0310    25.4580   -18.0780 ca         1 Q3D      -0.103000
      3 C3         -12.0970    26.3480   -19.1560 ca         1 Q3D       0.116100
      4 C5         -12.2950    27.0670   -21.3970 c5         1 Q3D      -0.061100
      5 O2         -17.9090    25.4350   -27.9950 o          1 Q3D      -0.521500
      6 S          -18.5700    25.7250   -26.7190 sy         1 Q3D       1.116100
      7 O1         -18.9530    27.1020   -26.3710 o          1 Q3D      -0.521500
      8 C23        -20.0890    24.7700   -26.6480 c3         1 Q3D      -0.341100
      9 C22        -17.5820    25.0480   -25.3210 cc         1 Q3D      -0.191500
     10 C20        -16.4370    24.2560   -25.3180 cd         1 Q3D       0.047000
     11 C11        -15.7000    23.5260   -26.3140 cd         1 Q3D      -0.115000
     12 C12        -16.1710    23.1370   -27.6580 ca         1 Q3D      -0.077000
     13 C19        -17.4610    22.5950   -27.8290 ca         1 Q3D       0.349900
     14 N2         -17.9390    22.1390   -29.0100 nb         1 Q3D      -0.672000
     15 C15        -17.1310    22.2080   -30.0910 ca         1 Q3D       0.403300
     16 C16        -17.7250    21.6990   -31.3820 cx         1 Q3D      -0.188000
     17 C18        -16.9120    20.9370   -32.4090 cx         1 Q3D      -0.119900
     18 C17        -17.4140    22.3260   -32.7260 cx         1 Q3D      -0.119900
     19 C14        -15.8150    22.7050   -30.0120 ca         1 Q3D      -0.151000
     20 C13        -15.3190    23.1600   -28.7800 ca         1 Q3D      -0.034000
     21 C10        -14.3860    23.2520   -25.9400 cc         1 Q3D       0.405900
     22 N4         -17.7770    25.5480   -24.0350 nc         1 Q3D      -0.456300
     23 C21        -16.7740    25.1260   -23.2730 cd         1 Q3D       0.337700
     24 N3         -15.9880    24.3110   -24.0430 na         1 Q3D      -0.195300
     25 C9         -14.6570    24.0690   -23.7660 cd         1 Q3D       0.815400
     26 N          -14.1130    24.2940   -22.5440 nu         1 Q3D      -0.934100
     27 C8         -12.7150    24.0610   -22.1590 c3         1 Q3D       0.297100
     28 C7         -12.4850    24.5400   -20.7310 ca         1 Q3D      -0.104300
     29 C          -12.4330    23.6290   -19.6500 ca         1 Q3D       0.137000
     30 F          -12.5980    22.3040   -19.8640 f          1 Q3D      -0.189000
     31 C4         -12.3110    25.9110   -20.4440 ca         1 Q3D      -0.114300
     32 C6         -12.3420    28.2360   -20.3460 c5         1 Q3D       0.149600
     33 O          -11.9310    27.7000   -19.0440 os         1 Q3D      -0.328100
     34 C1         -12.2060    24.0830   -18.3330 ca         1 Q3D      -0.114000
     35 H1         -11.8520    25.8220   -17.0690 ha         1 Q3D       0.139000
     36 H3         -13.1530    27.0880   -22.0780 hc         1 Q3D       0.074200
     37 H2         -11.3790    27.0950   -21.9980 hc         1 Q3D       0.074200
     38 H20        -20.5310    24.9150   -25.6570 h1         1 Q3D       0.102367
     39 H19        -20.7600    25.1440   -27.4270 h1         1 Q3D       0.102367
     40 H21        -19.8600    23.7150   -26.8150 h1         1 Q3D       0.102367
     41 H17        -18.1230    22.4780   -26.9730 h4         1 Q3D       0.010100
     42 H12        -18.7500    21.3600   -31.2470 hc         1 Q3D       0.100700
     43 H15        -17.3900    20.0990   -32.9120 hc         1 Q3D       0.074200
     44 H16        -15.8460    20.8090   -32.2360 hc         1 Q3D       0.074200
     45 H13        -16.6860    23.1320   -32.7660 hc         1 Q3D       0.074200
     46 H14        -18.2290    22.4190   -33.4410 hc         1 Q3D       0.074200
     47 H11        -15.1810    22.7350   -30.8930 ha         1 Q3D       0.124000
     48 H10        -14.3030    23.5440   -28.7120 ha         1 Q3D       0.120000
     49 H9         -13.6870    22.7610   -26.6030 h4         1 Q3D       0.031100
     50 H18        -16.5720    25.3840   -22.2400 h5         1 Q3D       0.072800
     51 H8         -14.7860    24.4040   -21.7940 hn         1 Q3D       0.515000
     52 H6         -12.4650    22.9940   -22.2470 h1         1 Q3D       0.070700
     53 H7         -12.0380    24.6050   -22.8330 h1         1 Q3D       0.070700
     54 H4         -11.6970    29.0810   -20.6220 h1         1 Q3D       0.059200
     55 H5         -13.3680    28.6130   -20.2450 h1         1 Q3D       0.059200
     56 H          -12.1650    23.3670   -17.5150 ha         1 Q3D       0.137000
@<TRIPOS>BOND
     1     1    21 1   
     2     1    25 2   
     3     2     3 ar  
     4     2    34 ar  
     5     2    35 1   
     6     3    31 ar  
     7     3    33 1   
     8     4    31 1   
     9     4    32 1   
    10     4    36 1   
    11     4    37 1   
    12     5     6 2   
    13     6     7 2   
    14     6     8 1   
    15     6     9 1   
    16     8    38 1   
    17     8    39 1   
    18     8    40 1   
    19     9    10 2   
    20     9    22 1   
    21    10    11 1   
    22    10    24 1   
    23    11    12 1   
    24    11    21 2   
    25    12    13 ar  
    26    12    20 ar  
    27    13    14 ar  
    28    13    41 1   
    29    14    15 ar  
    30    15    16 1   
    31    15    19 ar  
    32    16    17 1   
    33    16    18 1   
    34    16    42 1   
    35    17    18 1   
    36    17    43 1   
    37    17    44 1   
    38    18    45 1   
    39    18    46 1   
    40    19    20 ar  
    41    19    47 1   
    42    20    48 1   
    43    21    49 1   
    44    22    23 2   
    45    23    24 1   
    46    23    50 1   
    47    24    25 1   
    48    25    26 1   
    49    26    27 1   
    50    26    51 1   
    51    27    28 1   
    52    27    52 1   
    53    27    53 1   
    54    28    29 ar  
    55    28    31 ar  
    56    29    30 1   
    57    29    34 ar  
    58    32    33 1   
    59    32    54 1   
    60    32    55 1   
    61    34    56 1   
@<TRIPOS>SUBSTRUCTURE
     1 Q3D         1 TEMP              0 ****  ****    0 ROOT
