@<TRIPOS>MOLECULE
Q3F
   14    14     1     0     0
SMALL
abcg2


@<TRIPOS>ATOM
      1 N           38.8730    12.4670    23.6520 na         1 Q3F       0.122800
      2 C           40.1570    13.0420    24.0020 c3         1 Q3F       0.076900
      3 C1          38.5630    11.7960    22.5090 cc         1 Q3F      -0.224000
      4 C2          37.2200    11.4670    22.5880 cd         1 Q3F       0.137000
      5 C3          36.8040    11.9930    23.8290 cd         1 Q3F       0.208900
      6 N1          37.8150    12.6000    24.4620 nc         1 Q3F      -0.510800
      7 N2          36.4590    10.7050    21.6890 nv         1 Q3F      -1.016000
      8 H1          40.0850    13.4230    25.0170 h1         1 Q3F       0.055700
      9 H2          40.9360    12.2810    23.9540 h1         1 Q3F       0.055700
     10 H3          40.4110    13.8580    23.3230 h1         1 Q3F       0.055700
     11 H4          39.2980    11.6060    21.7450 h4         1 Q3F       0.153000
     12 H5          35.8230    11.9510    24.2770 h4         1 Q3F       0.038100
     13 H6          35.4790    10.9570    21.7010 hn         1 Q3F       0.424000
     14 H7          36.8020    10.7590    20.7390 hn         1 Q3F       0.424000
@<TRIPOS>BOND
     1     1     2 1   
     2     1     3 1   
     3     1     6 1   
     4     2     8 1   
     5     2     9 1   
     6     2    10 1   
     7     3     4 2   
     8     3    11 1   
     9     4     5 1   
    10     4     7 1   
    11     5     6 2   
    12     5    12 1   
    13     7    13 1   
    14     7    14 1   
@<TRIPOS>SUBSTRUCTURE
     1 Q3F         1 TEMP              0 ****  ****    0 ROOT
