@<TRIPOS>MOLECULE
Q3F
   14    14     1     0     0
SMALL
No Charge or Current Charge


@<TRIPOS>ATOM
      1 N           38.8510    12.5220    23.6230 na         1 Q3F       0.122800
      2 C           40.1700    13.0260    24.0330 c3         1 Q3F       0.076900
      3 C1          38.5820    11.7330    22.5050 cc         1 Q3F      -0.224000
      4 C2          37.2400    11.5360    22.5620 cd         1 Q3F       0.137000
      5 C3          36.7640    12.2180    23.7150 cd         1 Q3F       0.208900
      6 N1          37.7320    12.8270    24.3770 nc         1 Q3F      -0.510800
      7 N2          36.4640    10.8170    21.6830 nv         1 Q3F      -1.016000
      8 H1          40.4130    12.6460    25.0320 h1         1 Q3F       0.055700
      9 H2          40.9330    12.6890    23.3220 h1         1 Q3F       0.055700
     10 H3          40.1540    14.1220    24.0540 h1         1 Q3F       0.055700
     11 H4          39.3380    11.4020    21.8050 h4         1 Q3F       0.153000
     12 H5          35.7470    12.2820    24.0800 h4         1 Q3F       0.038100
     13 H6          35.4560    10.7310    21.8200 hn         1 Q3F       0.424000
     14 H7          36.8810    10.3540    20.8760 hn         1 Q3F       0.424000
@<TRIPOS>BOND
     1     1     2 1   
     2     1     3 1   
     3     1     6 1   
     4     2     8 1   
     5     2     9 1   
     6     2    10 1   
     7     3     4 2   
     8     3    11 1   
     9     4     5 1   
    10     4     7 1   
    11     5     6 2   
    12     5    12 1   
    13     7    13 1   
    14     7    14 1   
@<TRIPOS>SUBSTRUCTURE
     1 Q3F         1 TEMP              0 ****  ****    0 ROOT
