@<TRIPOS>MOLECULE
Q3G
  128   127     1     0     0
SMALL
abcg2


@<TRIPOS>ATOM
      1 C10         -9.7060     1.6600     0.5720 c3         1 Q3G      -0.074400
      2 C13         -6.1390     0.0660     0.6450 c3         1 Q3G      -0.078400
      3 C15         -3.9680    -1.1050     1.3110 c3         1 Q3G      -0.086400
      4 C17         -1.8450    -2.2840     2.0100 c3         1 Q3G      -0.149400
      5 C21          0.9330    -4.1280     3.5520 c3         1 Q3G       0.174600
      6 C22          2.2050    -4.5350     2.8440 c3         1 Q3G       0.169300
      7 C09        -10.5500     2.4280    -0.4380 c3         1 Q3G      -0.074400
      8 C11         -8.3350     1.2410     0.0560 c3         1 Q3G      -0.075400
      9 C12         -7.5170     0.5120     1.1150 c3         1 Q3G      -0.072400
     10 C14         -5.3510    -0.6380     1.7440 c3         1 Q3G      -0.066400
     11 C16         -3.2200    -1.8050     2.4400 c3         1 Q3G      -0.055400
     12 C18         -1.0930    -3.0190     3.0840 c          1 Q3G       0.601100
     13 C23          2.0180    -5.4300     1.6300 c3         1 Q3G       0.224600
     14 C29         -1.4370    -4.5430    -1.8570 c3         1 Q3G       0.187600
     15 C30         -2.3920    -3.3500    -1.7970 c3         1 Q3G       0.018500
     16 C31         -3.3120    -3.4170    -3.0370 c          1 Q3G       0.720000
     17 C38          4.7620    -1.9920     2.0360 c3         1 Q3G      -0.142400
     18 C39          6.2690    -1.9550     1.8500 c3         1 Q3G      -0.065400
     19 C40          6.7590    -0.5680     1.4530 c3         1 Q3G      -0.076400
     20 C41          8.2670    -0.5100     1.2500 c3         1 Q3G      -0.073400
     21 C42          8.7660     0.8700     0.8400 c3         1 Q3G      -0.075400
     22 C43         10.2730     0.9230     0.6230 c3         1 Q3G      -0.074400
     23 C44         10.7750     2.3000     0.2050 c3         1 Q3G      -0.074400
     24 C45         12.2790     2.3440    -0.0320 c3         1 Q3G      -0.074400
     25 N34         -1.7240    -2.0680    -1.6910 n8         1 Q3G      -1.009200
     26 O19         -1.5290    -3.3070     4.1730 o          1 Q3G      -0.548000
     27 O20          0.1280    -3.3440     2.6810 os         1 Q3G      -0.384100
     28 O24          1.4560    -4.7090     0.5630 os         1 Q3G      -0.577400
     29 O26          0.3620    -6.8740    -0.2910 o          1 Q3G      -0.840000
     30 O27          1.5380    -5.2430    -1.9350 o          1 Q3G      -0.840000
     31 O28         -0.5970    -4.5200    -0.7120 os         1 Q3G      -0.626400
     32 O32         -3.1250    -2.5770    -3.9380 o          1 Q3G      -0.747500
     33 O33         -4.1480    -4.3420    -3.0420 o          1 Q3G      -0.747500
     34 O35          2.9010    -3.3320     2.5030 os         1 Q3G      -0.414100
     35 O37          4.9010    -4.3250     2.6240 o          1 Q3G      -0.520000
     36 P25          0.7340    -5.4780    -0.6920 p5         1 Q3G       1.408800
     37 H1          -9.5790     2.2770     1.4690 hc         1 Q3G       0.031200
     38 H2          -6.2430    -0.6030    -0.2160 hc         1 Q3G       0.051700
     39 H4          -4.0580    -1.7830     0.4560 hc         1 Q3G       0.066700
     40 H6          -1.9210    -2.9620     1.1550 hc         1 Q3G       0.105200
     41 H8           0.4060    -5.0330     3.8620 h1         1 Q3G       0.037700
     42 H10          2.7790    -5.1130     3.5760 h1         1 Q3G       0.038700
     43 H21          2.9910    -5.8450     1.3460 h1         1 Q3G       0.030200
     44 H22          1.3930    -6.2750     1.9350 h1         1 Q3G       0.030200
     45 H23         -2.0090    -5.4750    -1.8950 h1         1 Q3G       0.031700
     46 H24         -0.8370    -4.4800    -2.7730 h1         1 Q3G       0.031700
     47 H25         -3.0250    -3.4800    -0.9110 h1         1 Q3G       0.033700
     48 H26          4.2510    -1.6700     1.1230 hc         1 Q3G       0.074200
     49 H27          4.4540    -1.2780     2.8080 hc         1 Q3G       0.074200
     50 H28          6.7660    -2.2650     2.7730 hc         1 Q3G       0.049200
     51 H29          6.5650    -2.6760     1.0830 hc         1 Q3G       0.049200
     52 H30          6.2560    -0.2550     0.5320 hc         1 Q3G       0.037700
     53 H31          6.4660     0.1570     2.2200 hc         1 Q3G       0.037700
     54 H32          8.7710    -0.8180     2.1730 hc         1 Q3G       0.036700
     55 H33          8.5580    -1.2420     0.4880 hc         1 Q3G       0.036700
     56 H34          8.2550     1.1800    -0.0790 hc         1 Q3G       0.037200
     57 H35          8.4820     1.6010     1.6050 hc         1 Q3G       0.037200
     58 H36         10.7850     0.6150     1.5410 hc         1 Q3G       0.035700
     59 H37         10.5540     0.1890    -0.1400 hc         1 Q3G       0.035700
     60 H38         10.2540     2.6120    -0.7070 hc         1 Q3G       0.037200
     61 H39         10.5060     3.0340     0.9730 hc         1 Q3G       0.037200
     62 H40         12.8010     2.0320     0.8790 hc         1 Q3G       0.035700
     63 H41         12.5450     1.6080    -0.7990 hc         1 Q3G       0.035700
     64 H43         -0.9800    -2.1300    -1.0080 hn         1 Q3G       0.385500
     65 H44         -1.2940    -1.8490    -2.5800 hn         1 Q3G       0.385500
     66 C8         -11.9100     2.8220     0.1250 c3         1 Q3G      -0.074400
     67 C7         -12.7770     3.6270    -0.8340 c3         1 Q3G      -0.073400
     68 C6         -14.1230     4.0030    -0.2270 c3         1 Q3G      -0.075400
     69 C5         -15.0090     4.8350    -1.1440 c3         1 Q3G      -0.073400
     70 C4         -16.3430     5.1980    -0.5040 c3         1 Q3G      -0.075400
     71 C3         -17.2420     6.0450    -1.3960 c3         1 Q3G      -0.075400
     72 C2         -18.5710     6.4000    -0.7400 c3         1 Q3G      -0.075400
     73 C46         12.7840     3.7180    -0.4560 c3         1 Q3G      -0.074400
     74 C47         14.2850     3.7520    -0.7190 c3         1 Q3G      -0.074400
     75 C48         14.7920     5.1220    -1.1480 c3         1 Q3G      -0.074400
     76 C49         16.2880     5.1460    -1.4370 c3         1 Q3G      -0.074400
     77 C50         16.7970     6.5150    -1.8720 c3         1 Q3G      -0.075400
     78 C51         18.2880     6.5340    -2.1830 c3         1 Q3G      -0.075400
     79 H3         -10.2550     0.7690     0.8970 hc         1 Q3G       0.031200
     80 H5          -5.5740     0.9340     0.2890 hc         1 Q3G       0.051700
     81 H7          -3.3840    -0.2500     0.9560 hc         1 Q3G       0.066700
     82 H9          -1.2330    -1.4470     1.6600 hc         1 Q3G       0.105200
     83 H11          1.1800    -3.5630     4.4550 h1         1 Q3G       0.037700
     84 H12        -10.0110     3.3270    -0.7570 hc         1 Q3G       0.039200
     85 H13        -10.6870     1.8210    -1.3400 hc         1 Q3G       0.039200
     86 H14         -8.4530     0.5990    -0.8230 hc         1 Q3G       0.042700
     87 H15         -7.7860     2.1250    -0.2850 hc         1 Q3G       0.042700
     88 H16         -8.0780    -0.3630     1.4630 hc         1 Q3G       0.026700
     89 H17         -7.4060     1.1630     1.9890 hc         1 Q3G       0.026700
     90 H18         -5.2520     0.0370     2.6010 hc         1 Q3G       0.021700
     91 H19         -5.9260    -1.4990     2.1030 hc         1 Q3G       0.021700
     92 H20         -3.1270    -1.1210     3.2890 hc         1 Q3G       0.030700
     93 H48         -3.8130    -2.6530     2.7920 hc         1 Q3G       0.030700
     94 H42        -12.4500     1.9170     0.4270 hc         1 Q3G       0.033700
     95 H45        -11.7620     3.4010     1.0440 hc         1 Q3G       0.033700
     96 H49        -12.2440     4.5370    -1.1330 hc         1 Q3G       0.037700
     97 H50        -12.9370     3.0550    -1.7550 hc         1 Q3G       0.037700
     98 H51        -14.6560     3.0900     0.0600 hc         1 Q3G       0.034700
     99 H52        -13.9530     4.5550     0.7050 hc         1 Q3G       0.034700
    100 H53        -14.4810     5.7520    -1.4300 hc         1 Q3G       0.037200
    101 H54        -15.1880     4.2880    -2.0760 hc         1 Q3G       0.037200
    102 H55        -16.8710     4.2790    -0.2240 hc         1 Q3G       0.035200
    103 H56        -16.1580     5.7340     0.4340 hc         1 Q3G       0.035200
    104 H57        -16.7170     6.9660    -1.6740 hc         1 Q3G       0.037200
    105 H58        -17.4320     5.5120    -2.3340 hc         1 Q3G       0.037200
    106 H59        -19.0960     5.4790    -0.4680 hc         1 Q3G       0.035200
    107 H60        -18.3790     6.9260     0.2000 hc         1 Q3G       0.035200
    108 H62         12.2510     4.0360    -1.3590 hc         1 Q3G       0.037200
    109 H63         12.5330     4.4520     0.3170 hc         1 Q3G       0.037200
    110 H64         14.8200     3.4330     0.1830 hc         1 Q3G       0.036200
    111 H65         14.5320     3.0150    -1.4920 hc         1 Q3G       0.036200
    112 H66         14.2450     5.4470    -2.0410 hc         1 Q3G       0.036700
    113 H67         14.5610     5.8560    -0.3690 hc         1 Q3G       0.036700
    114 H68         16.8370     4.8220    -0.5460 hc         1 Q3G       0.036200
    115 H69         16.5170     4.4110    -2.2170 hc         1 Q3G       0.036200
    116 H70         16.2380     6.8450    -2.7550 hc         1 Q3G       0.036700
    117 H71         16.5820     7.2490    -1.0870 hc         1 Q3G       0.036700
    118 H72         18.8470     6.2050    -1.3010 hc         1 Q3G       0.036200
    119 H73         18.5030     5.8010    -2.9670 hc         1 Q3G       0.036200
    120 C1         -19.4630     7.2540    -1.6290 c3         1 Q3G      -0.088100
    121 C52         18.7840     7.9060    -2.6190 c3         1 Q3G      -0.088100
    122 H61        -20.4070     7.4960    -1.1390 hc         1 Q3G       0.029033
    123 H74        -18.9760     8.1960    -1.8880 hc         1 Q3G       0.029033
    124 H75        -19.6990     6.7400    -2.5630 hc         1 Q3G       0.029033
    125 H76         18.2520     8.2510    -3.5080 hc         1 Q3G       0.029367
    126 H77         18.6280     8.6490    -1.8350 hc         1 Q3G       0.029367
    127 H78         19.8490     7.8930    -2.8550 hc         1 Q3G       0.029367
    128 C36          4.2290    -3.3460     2.4170 c          1 Q3G       0.606100
@<TRIPOS>BOND
     1     1     7 1   
     2     1     8 1   
     3     1    37 1   
     4     1    79 1   
     5     2     9 1   
     6     2    10 1   
     7     2    38 1   
     8     2    80 1   
     9     3    10 1   
    10     3    11 1   
    11     3    39 1   
    12     3    81 1   
    13     4    11 1   
    14     4    12 1   
    15     4    40 1   
    16     4    82 1   
    17     5     6 1   
    18     5    27 1   
    19     5    41 1   
    20     5    83 1   
    21     6    13 1   
    22     6    34 1   
    23     6    42 1   
    24     7    66 1   
    25     7    84 1   
    26     7    85 1   
    27     8     9 1   
    28     8    86 1   
    29     8    87 1   
    30     9    88 1   
    31     9    89 1   
    32    10    90 1   
    33    10    91 1   
    34    11    92 1   
    35    11    93 1   
    36    12    26 2   
    37    12    27 1   
    38    13    28 1   
    39    13    43 1   
    40    13    44 1   
    41    14    15 1   
    42    14    31 1   
    43    14    45 1   
    44    14    46 1   
    45    15    16 1   
    46    15    25 1   
    47    15    47 1   
    48    16    32 1   
    49    16    33 1   
    50    17    18 1   
    51    17    48 1   
    52    17    49 1   
    53    17   128 1   
    54    18    19 1   
    55    18    50 1   
    56    18    51 1   
    57    19    20 1   
    58    19    52 1   
    59    19    53 1   
    60    20    21 1   
    61    20    54 1   
    62    20    55 1   
    63    21    22 1   
    64    21    56 1   
    65    21    57 1   
    66    22    23 1   
    67    22    58 1   
    68    22    59 1   
    69    23    24 1   
    70    23    60 1   
    71    23    61 1   
    72    24    62 1   
    73    24    63 1   
    74    24    73 1   
    75    25    64 1   
    76    25    65 1   
    77    28    36 1   
    78    29    36 1   
    79    30    36 1   
    80    31    36 1   
    81    34   128 1   
    82    35   128 2   
    83    66    67 1   
    84    66    94 1   
    85    66    95 1   
    86    67    68 1   
    87    67    96 1   
    88    67    97 1   
    89    68    69 1   
    90    68    98 1   
    91    68    99 1   
    92    69    70 1   
    93    69   100 1   
    94    69   101 1   
    95    70    71 1   
    96    70   102 1   
    97    70   103 1   
    98    71    72 1   
    99    71   104 1   
   100    71   105 1   
   101    72   106 1   
   102    72   107 1   
   103    72   120 1   
   104    73    74 1   
   105    73   108 1   
   106    73   109 1   
   107    74    75 1   
   108    74   110 1   
   109    74   111 1   
   110    75    76 1   
   111    75   112 1   
   112    75   113 1   
   113    76    77 1   
   114    76   114 1   
   115    76   115 1   
   116    77    78 1   
   117    77   116 1   
   118    77   117 1   
   119    78   118 1   
   120    78   119 1   
   121    78   121 1   
   122   120   122 1   
   123   120   123 1   
   124   120   124 1   
   125   121   125 1   
   126   121   126 1   
   127   121   127 1   
@<TRIPOS>SUBSTRUCTURE
     1 Q3G         1 TEMP              0 ****  ****    0 ROOT
