@<TRIPOS>MOLECULE
Q3G
  128   127     1     0     0
SMALL
No Charge or Current Charge


@<TRIPOS>ATOM
      1 C10         -8.9580     1.6310     0.0800 c3         1 Q3G      -0.074400
      2 C13         -5.4070     0.6840     1.5470 c3         1 Q3G      -0.078400
      3 C15         -3.3260    -0.5040     2.5110 c3         1 Q3G      -0.086400
      4 C17         -1.3180    -1.7380     3.5760 c3         1 Q3G      -0.149400
      5 C21          0.8770    -4.7730     3.3680 c3         1 Q3G       0.174600
      6 C22          2.1000    -4.9940     2.4380 c3         1 Q3G       0.169300
      7 C09         -9.7380     2.9510    -0.1020 c3         1 Q3G      -0.074400
      8 C11         -7.5460     1.8340     0.6720 c3         1 Q3G      -0.075400
      9 C12         -6.7990     0.5020     0.9010 c3         1 Q3G      -0.072400
     10 C14         -4.6980    -0.6610     1.8190 c3         1 Q3G      -0.066400
     11 C16         -2.6660    -1.8640     2.8290 c3         1 Q3G      -0.055400
     12 C18         -0.7650    -3.1140     3.9450 c          1 Q3G       0.601100
     13 C23          1.7910    -5.0110     0.9060 c3         1 Q3G       0.224600
     14 C29         -2.1940    -4.9180    -0.3110 c3         1 Q3G       0.187600
     15 C30         -3.2640    -3.9540    -0.9200 c3         1 Q3G       0.018500
     16 C31         -4.5600    -4.8050    -1.2270 c          1 Q3G       0.720000
     17 C38          5.3530    -3.1300     2.8340 c3         1 Q3G      -0.142400
     18 C39          5.9140    -2.3160     1.6440 c3         1 Q3G      -0.065400
     19 C40          6.9920    -1.2930     2.0700 c3         1 Q3G      -0.076400
     20 C41          7.6150    -0.5330     0.8780 c3         1 Q3G      -0.073400
     21 C42          8.7500     0.4240     1.3020 c3         1 Q3G      -0.075400
     22 C43          9.4170     1.1420     0.1080 c3         1 Q3G      -0.074400
     23 C44         10.5910     2.0530     0.5300 c3         1 Q3G      -0.074400
     24 C45         11.2870     2.7370    -0.6680 c3         1 Q3G      -0.074400
     25 N34         -2.7450    -3.0910    -2.0570 n8         1 Q3G      -1.009200
     26 O19         -1.1820    -3.7760     4.8880 o          1 Q3G      -0.548000
     27 O20          0.2930    -3.4730     3.1560 os         1 Q3G      -0.384100
     28 O24          1.3070    -3.7340     0.4600 os         1 Q3G      -0.577400
     29 O26          0.4780    -4.6460    -1.7660 o          1 Q3G      -0.840000
     30 O27         -0.0720    -2.3070    -1.1720 o          1 Q3G      -0.840000
     31 O28         -1.0810    -4.1870     0.2420 os         1 Q3G      -0.626400
     32 O32         -4.5000    -5.6720    -2.0910 o          1 Q3G      -0.747500
     33 O33         -5.5940    -4.5340    -0.6290 o          1 Q3G      -0.747500
     34 O35          3.1150    -4.0070     2.7540 os         1 Q3G      -0.414100
     35 O37          4.8050    -5.2890     1.8740 o          1 Q3G      -0.520000
     36 P25          0.1570    -3.6910    -0.6650 p5         1 Q3G       1.408800
     37 H1          -9.5300     0.9670     0.7410 hc         1 Q3G       0.031200
     38 H2          -4.7800     1.3010     0.8910 hc         1 Q3G       0.051700
     39 H4          -2.6590     0.0840     1.8690 hc         1 Q3G       0.066700
     40 H6          -0.6060    -1.2240     2.9210 hc         1 Q3G       0.105200
     41 H8           0.1360    -5.5590     3.1740 h1         1 Q3G       0.037700
     42 H10          2.4790    -5.9930     2.6930 h1         1 Q3G       0.038700
     43 H21          2.6960    -5.2830     0.3490 h1         1 Q3G       0.030200
     44 H22          1.0510    -5.8010     0.7180 h1         1 Q3G       0.030200
     45 H23         -2.6700    -5.5080     0.4840 h1         1 Q3G       0.031700
     46 H24         -1.8580    -5.6270    -1.0790 h1         1 Q3G       0.031700
     47 H25         -3.5450    -3.2580    -0.1170 h1         1 Q3G       0.033700
     48 H26          4.8150    -2.4420     3.4960 hc         1 Q3G       0.074200
     49 H27          6.1890    -3.5930     3.3700 hc         1 Q3G       0.074200
     50 H28          6.3520    -3.0070     0.9120 hc         1 Q3G       0.049200
     51 H29          5.0920    -1.7940     1.1380 hc         1 Q3G       0.049200
     52 H30          6.5510    -0.5720     2.7700 hc         1 Q3G       0.037700
     53 H31          7.7880    -1.8190     2.6120 hc         1 Q3G       0.037700
     54 H32          8.0110    -1.2600     0.1580 hc         1 Q3G       0.036700
     55 H33          6.8320     0.0360     0.3610 hc         1 Q3G       0.036700
     56 H34          8.3520     1.1720     1.9980 hc         1 Q3G       0.037200
     57 H35          9.5130    -0.1460     1.8460 hc         1 Q3G       0.037200
     58 H36          9.7850     0.3910    -0.6020 hc         1 Q3G       0.035700
     59 H37          8.6650     1.7410    -0.4210 hc         1 Q3G       0.035700
     60 H38         10.2240     2.8200     1.2220 hc         1 Q3G       0.037200
     61 H39         11.3300     1.4540     1.0780 hc         1 Q3G       0.037200
     62 H40         11.6340     1.9680    -1.3690 hc         1 Q3G       0.035700
     63 H41         10.5560     3.3540    -1.2050 hc         1 Q3G       0.035700
     64 H43         -1.8480    -2.6720    -1.7580 hn         1 Q3G       0.385500
     65 H44         -2.4750    -3.7020    -2.8360 hn         1 Q3G       0.385500
     66 C8         -11.1720     2.7310    -0.6340 c3         1 Q3G      -0.074400
     67 C7         -11.9780     4.0420    -0.7620 c3         1 Q3G      -0.073400
     68 C6         -13.4280     3.8150    -1.2420 c3         1 Q3G      -0.075400
     69 C5         -14.2480     5.1210    -1.3220 c3         1 Q3G      -0.073400
     70 C4         -15.7080     4.8920    -1.7710 c3         1 Q3G      -0.075400
     71 C3         -16.5340     6.1960    -1.8230 c3         1 Q3G      -0.075400
     72 C2         -17.9980     5.9690    -2.2590 c3         1 Q3G      -0.075400
     73 C46         12.4850     3.6170    -0.2500 c3         1 Q3G      -0.074400
     74 C47         13.1970     4.2760    -1.4520 c3         1 Q3G      -0.074400
     75 C48         14.4130     5.1340    -1.0380 c3         1 Q3G      -0.074400
     76 C49         15.1360     5.7760    -2.2430 c3         1 Q3G      -0.074400
     77 C50         16.3620     6.6200    -1.8310 c3         1 Q3G      -0.075400
     78 C51         17.0930     7.2520    -3.0350 c3         1 Q3G      -0.075400
     79 H3          -8.8750     1.1240    -0.8890 hc         1 Q3G       0.031200
     80 H5          -5.5180     1.2300     2.4920 hc         1 Q3G       0.051700
     81 H7          -3.4560     0.0600     3.4430 hc         1 Q3G       0.066700
     82 H9          -1.4710    -1.1670     4.4990 hc         1 Q3G       0.105200
     83 H11          1.2100    -4.8770     4.4090 h1         1 Q3G       0.037700
     84 H12         -9.7900     3.4720     0.8620 hc         1 Q3G       0.039200
     85 H13         -9.1900     3.6040    -0.7910 hc         1 Q3G       0.039200
     86 H14         -6.9570     2.4700    -0.0010 hc         1 Q3G       0.042700
     87 H15         -7.6290     2.3680     1.6270 hc         1 Q3G       0.042700
     88 H16         -6.6870    -0.0190    -0.0580 hc         1 Q3G       0.026700
     89 H17         -7.4090    -0.1420     1.5460 hc         1 Q3G       0.026700
     90 H18         -5.3460    -1.2840     2.4470 hc         1 Q3G       0.021700
     91 H19         -4.5640    -1.1950     0.8700 hc         1 Q3G       0.021700
     92 H20         -3.3570    -2.4610     3.4380 hc         1 Q3G       0.030700
     93 H48         -2.5080    -2.4160     1.8950 hc         1 Q3G       0.030700
     94 H42        -11.1230     2.2390    -1.6140 hc         1 Q3G       0.033700
     95 H45        -11.7030     2.0490     0.0410 hc         1 Q3G       0.033700
     96 H49        -11.9980     4.5460     0.2130 hc         1 Q3G       0.037700
     97 H50        -11.4660     4.7150    -1.4600 hc         1 Q3G       0.037700
     98 H51        -13.4110     3.3370    -2.2300 hc         1 Q3G       0.034700
     99 H52        -13.9280     3.1190    -0.5580 hc         1 Q3G       0.034700
    100 H53        -14.2470     5.6060    -0.3380 hc         1 Q3G       0.037200
    101 H54        -13.7590     5.8120    -2.0200 hc         1 Q3G       0.037200
    102 H55        -15.7120     4.4230    -2.7630 hc         1 Q3G       0.035200
    103 H56        -16.1910     4.1890    -1.0810 hc         1 Q3G       0.035200
    104 H57        -16.5240     6.6680    -0.8320 hc         1 Q3G       0.037200
    105 H58        -16.0560     6.8990    -2.5170 hc         1 Q3G       0.037200
    106 H59        -18.0130     5.5030    -3.2520 hc         1 Q3G       0.035200
    107 H60        -18.4780     5.2650    -1.5680 hc         1 Q3G       0.035200
    108 H62         12.1380     4.3980     0.4380 hc         1 Q3G       0.037200
    109 H63         13.2070     3.0020     0.3020 hc         1 Q3G       0.037200
    110 H64         13.5300     3.4940    -2.1450 hc         1 Q3G       0.036200
    111 H65         12.4810     4.9040    -1.9960 hc         1 Q3G       0.036200
    112 H66         14.0800     5.9250    -0.3540 hc         1 Q3G       0.036700
    113 H67         15.1230     4.5080    -0.4840 hc         1 Q3G       0.036700
    114 H68         15.4590     4.9850    -2.9310 hc         1 Q3G       0.036200
    115 H69         14.4290     6.4100    -2.7920 hc         1 Q3G       0.036200
    116 H70         16.0380     7.4150    -1.1470 hc         1 Q3G       0.036700
    117 H71         17.0650     5.9860    -1.2750 hc         1 Q3G       0.036700
    118 H72         17.4160     6.4590    -3.7210 hc         1 Q3G       0.036200
    119 H73         16.3940     7.8900    -3.5910 hc         1 Q3G       0.036200
    120 C1         -18.8240     7.2690    -2.3030 c3         1 Q3G      -0.088100
    121 C52         18.3190     8.0890    -2.6250 c3         1 Q3G      -0.088100
    122 H61        -19.8530     7.0570    -2.6160 hc         1 Q3G       0.029033
    123 H74        -18.8570     7.7410    -1.3130 hc         1 Q3G       0.029033
    124 H75        -18.3890     7.9820    -3.0130 hc         1 Q3G       0.029033
    125 H76         18.0230     8.9140    -1.9660 hc         1 Q3G       0.029367
    126 H77         19.0530     7.4680    -2.0960 hc         1 Q3G       0.029367
    127 H78         18.8050     8.5140    -3.5110 hc         1 Q3G       0.029367
    128 C36          4.4090    -4.2400     2.3650 c          1 Q3G       0.606100
@<TRIPOS>BOND
     1     1     7 1   
     2     1     8 1   
     3     1    37 1   
     4     1    79 1   
     5     2     9 1   
     6     2    10 1   
     7     2    38 1   
     8     2    80 1   
     9     3    10 1   
    10     3    11 1   
    11     3    39 1   
    12     3    81 1   
    13     4    11 1   
    14     4    12 1   
    15     4    40 1   
    16     4    82 1   
    17     5     6 1   
    18     5    27 1   
    19     5    41 1   
    20     5    83 1   
    21     6    13 1   
    22     6    34 1   
    23     6    42 1   
    24     7    66 1   
    25     7    84 1   
    26     7    85 1   
    27     8     9 1   
    28     8    86 1   
    29     8    87 1   
    30     9    88 1   
    31     9    89 1   
    32    10    90 1   
    33    10    91 1   
    34    11    92 1   
    35    11    93 1   
    36    12    26 2   
    37    12    27 1   
    38    13    28 1   
    39    13    43 1   
    40    13    44 1   
    41    14    15 1   
    42    14    31 1   
    43    14    45 1   
    44    14    46 1   
    45    15    16 1   
    46    15    25 1   
    47    15    47 1   
    48    16    32 1   
    49    16    33 1   
    50    17    18 1   
    51    17    48 1   
    52    17    49 1   
    53    17   128 1   
    54    18    19 1   
    55    18    50 1   
    56    18    51 1   
    57    19    20 1   
    58    19    52 1   
    59    19    53 1   
    60    20    21 1   
    61    20    54 1   
    62    20    55 1   
    63    21    22 1   
    64    21    56 1   
    65    21    57 1   
    66    22    23 1   
    67    22    58 1   
    68    22    59 1   
    69    23    24 1   
    70    23    60 1   
    71    23    61 1   
    72    24    62 1   
    73    24    63 1   
    74    24    73 1   
    75    25    64 1   
    76    25    65 1   
    77    28    36 1   
    78    29    36 1   
    79    30    36 1   
    80    31    36 1   
    81    34   128 1   
    82    35   128 2   
    83    66    67 1   
    84    66    94 1   
    85    66    95 1   
    86    67    68 1   
    87    67    96 1   
    88    67    97 1   
    89    68    69 1   
    90    68    98 1   
    91    68    99 1   
    92    69    70 1   
    93    69   100 1   
    94    69   101 1   
    95    70    71 1   
    96    70   102 1   
    97    70   103 1   
    98    71    72 1   
    99    71   104 1   
   100    71   105 1   
   101    72   106 1   
   102    72   107 1   
   103    72   120 1   
   104    73    74 1   
   105    73   108 1   
   106    73   109 1   
   107    74    75 1   
   108    74   110 1   
   109    74   111 1   
   110    75    76 1   
   111    75   112 1   
   112    75   113 1   
   113    76    77 1   
   114    76   114 1   
   115    76   115 1   
   116    77    78 1   
   117    77   116 1   
   118    77   117 1   
   119    78   118 1   
   120    78   119 1   
   121    78   121 1   
   122   120   122 1   
   123   120   123 1   
   124   120   124 1   
   125   121   125 1   
   126   121   126 1   
   127   121   127 1   
@<TRIPOS>SUBSTRUCTURE
     1 Q3G         1 TEMP              0 ****  ****    0 ROOT
