@<TRIPOS>MOLECULE
Q3L
   59    60     1     0     0
SMALL
No Charge or Current Charge


@<TRIPOS>ATOM
      1 O3          19.4280    23.2180    22.9170 o          1 Q3L      -0.658500
      2 C16         14.8740    29.1760    24.5020 c6         1 Q3L       0.121300
      3 N4          19.1720    27.3100    24.3610 na         1 Q3L      -0.275500
      4 C3          14.4480    30.7090    20.8570 c3         1 Q3L       0.158500
      5 N2          20.8590    27.8580    22.9930 nc         1 Q3L      -0.612000
      6 C4          14.9770    29.8350    22.0550 c6         1 Q3L       0.156300
      7 C5          17.0660    29.2620    23.1640 c6         1 Q3L       0.258300
      8 N3          18.2210    23.0940    25.8800 n4         1 Q3L      -0.472000
      9 C6          19.6890    28.2160    23.4780 cd         1 Q3L       0.475800
     10 C7          21.1010    26.6370    23.5670 cc         1 Q3L       0.262900
     11 C8          20.0800    26.2670    24.4140 cd         1 Q3L      -0.185300
     12 C9          19.9100    25.0250    25.2490 c3         1 Q3L      -0.000100
     13 C1          12.9290    30.4800    20.5310 c3         1 Q3L       0.172300
     14 N1          14.7660    32.1540    21.0420 n8         1 Q3L      -0.991200
     15 C2          12.4670    31.1870    19.2370 c3         1 Q3L      -0.089100
     16 C17         14.2140    30.0650    23.4070 c6         1 Q3L       0.159300
     17 O2          16.3900    30.1230    22.2220 os         1 Q3L      -0.420000
     18 C10         18.5990    24.2620    24.9150 c3         1 Q3L      -0.047700
     19 C15         16.4120    29.4270    24.5820 c6         1 Q3L       0.107300
     20 C14         18.5590    23.9400    23.3890 c          1 Q3L       0.722000
     21 C13         18.0220    23.6220    27.3070 c3         1 Q3L       0.077900
     22 C12         16.9040    22.4570    25.4180 c3         1 Q3L       0.077900
     23 C11         19.3160    22.0180    25.8880 c3         1 Q3L       0.077900
     24 O1          12.6550    29.0770    20.3980 oh         1 Q3L      -0.663000
     25 O4          17.6080    24.3650    22.7480 o          1 Q3L      -0.658500
     26 O5          16.9670    28.5410    25.5740 oh         1 Q3L      -0.741000
     27 O6          14.2690    29.4300    25.7890 oh         1 Q3L      -0.666000
     28 O7          14.2450    31.4400    23.8470 oh         1 Q3L      -0.689000
     29 S1          18.8600    29.7210    23.0870 ss         1 Q3L      -0.300300
     30 H1          14.7190    28.1230    24.2180 h1         1 Q3L       0.056700
     31 H2          18.3180    27.4390    24.8980 hn         1 Q3L       0.358000
     32 H3          15.0050    30.3820    19.9680 h1         1 Q3L       0.046700
     33 H5          14.8750    28.7780    21.7680 h1         1 Q3L       0.057700
     34 H6          16.9830    28.2170    22.8280 h2         1 Q3L       0.091700
     35 H7          22.0070    26.0930    23.3340 h4         1 Q3L       0.045100
     36 H8          20.7680    24.3580    25.1050 hc         1 Q3L       0.053700
     37 H9          19.9140    25.3090    26.3070 hc         1 Q3L       0.053700
     38 H10         12.3370    30.8890    21.3620 h1         1 Q3L       0.046700
     39 H11         14.5050    32.3700    22.0160 hn         1 Q3L       0.405500
     40 H12         15.7880    32.2300    21.0860 hn         1 Q3L       0.405500
     41 H14         12.5930    32.2730    19.3170 hc         1 Q3L       0.044367
     42 H15         13.0450    30.8360    18.3730 hc         1 Q3L       0.044367
     43 H16         11.4050    30.9890    19.0440 hc         1 Q3L       0.044367
     44 H17         13.1720    29.7380    23.2820 h1         1 Q3L       0.042700
     45 H18         17.7930    24.9860    25.0430 hx         1 Q3L       0.068700
     46 H19         16.5730    30.4710    24.8910 h1         1 Q3L       0.075700
     47 H20         17.2610    24.4050    27.2960 hx         1 Q3L       0.086256
     48 H21         17.6980    22.8020    27.9510 hx         1 Q3L       0.086256
     49 H22         18.9640    24.0270    27.6800 hx         1 Q3L       0.086256
     50 H23         16.1230    23.2200    25.4050 hx         1 Q3L       0.086256
     51 H24         17.0340    22.0470    24.4150 hx         1 Q3L       0.086256
     52 H25         16.6280    21.6580    26.1090 hx         1 Q3L       0.086256
     53 H26         19.0180    21.2080    26.5570 hx         1 Q3L       0.086256
     54 H27         19.4470    21.6300    24.8760 hx         1 Q3L       0.086256
     55 H28         20.2510    22.4580    26.2380 hx         1 Q3L       0.086256
     56 H29         11.7000    28.9880    20.1820 ho         1 Q3L       0.436000
     57 H31         16.3470    28.6070    26.3420 ho         1 Q3L       0.517000
     58 H32         13.4260    28.9210    25.8250 ho         1 Q3L       0.460000
     59 H33         14.1490    31.3850    24.8280 ho         1 Q3L       0.514000
@<TRIPOS>BOND
     1     1    20 1   
     2     2    16 1   
     3     2    19 1   
     4     2    27 1   
     5     2    30 1   
     6     3     9 1   
     7     3    11 1   
     8     3    31 1   
     9     4     6 1   
    10     4    13 1   
    11     4    14 1   
    12     4    32 1   
    13     5     9 2   
    14     5    10 1   
    15     6    16 1   
    16     6    17 1   
    17     6    33 1   
    18     7    17 1   
    19     7    19 1   
    20     7    29 1   
    21     7    34 1   
    22     8    18 1   
    23     8    21 1   
    24     8    22 1   
    25     8    23 1   
    26     9    29 1   
    27    10    11 2   
    28    10    35 1   
    29    11    12 1   
    30    12    18 1   
    31    12    36 1   
    32    12    37 1   
    33    13    15 1   
    34    13    24 1   
    35    13    38 1   
    36    14    39 1   
    37    14    40 1   
    38    15    41 1   
    39    15    42 1   
    40    15    43 1   
    41    16    28 1   
    42    16    44 1   
    43    18    20 1   
    44    18    45 1   
    45    19    26 1   
    46    19    46 1   
    47    20    25 1   
    48    21    47 1   
    49    21    48 1   
    50    21    49 1   
    51    22    50 1   
    52    22    51 1   
    53    22    52 1   
    54    23    53 1   
    55    23    54 1   
    56    23    55 1   
    57    24    56 1   
    58    26    57 1   
    59    27    58 1   
    60    28    59 1   
@<TRIPOS>SUBSTRUCTURE
     1 Q3L         1 TEMP              0 ****  ****    0 ROOT
