@<TRIPOS>MOLECULE
Q3L
   59    60     1     0     0
SMALL
abcg2


@<TRIPOS>ATOM
      1 O3          18.6660    23.2560    22.8480 o          1 Q3L      -0.658500
      2 C16         14.5810    29.2540    24.5660 c6         1 Q3L       0.121300
      3 N4          19.0840    27.3460    24.6760 na         1 Q3L      -0.275500
      4 C3          14.6610    30.6200    20.8960 c3         1 Q3L       0.158500
      5 N2          20.2750    27.9270    22.9220 nc         1 Q3L      -0.612000
      6 C4          14.9790    29.8770    22.1980 c6         1 Q3L       0.156300
      7 C5          16.8320    29.3980    23.5580 c6         1 Q3L       0.258300
      8 N3          18.2880    23.0430    25.7790 n4         1 Q3L      -0.472000
      9 C6          19.3530    28.3100    23.7660 cd         1 Q3L       0.475800
     10 C7          20.6010    26.6560    23.2970 cc         1 Q3L       0.262900
     11 C8          19.8570    26.2640    24.3770 cd         1 Q3L      -0.185300
     12 C9          19.7970    24.9680    25.1040 c3         1 Q3L      -0.000100
     13 C1          13.2340    30.3340    20.3950 c3         1 Q3L       0.172300
     14 N1          14.8480    32.0590    21.0170 n8         1 Q3L      -0.991200
     15 C2          12.9950    30.9830    19.0410 c3         1 Q3L      -0.089100
     16 C17         14.0580    30.0950    23.3980 c6         1 Q3L       0.159300
     17 O2          16.3270    30.1940    22.5300 os         1 Q3L      -0.420000
     18 C10         18.4090    24.3320    24.9700 c3         1 Q3L      -0.047700
     19 C15         16.0380    29.6060    24.8450 c6         1 Q3L       0.107300
     20 C14         18.0670    24.1600    23.4570 c          1 Q3L       0.722000
     21 C13         18.2280    23.3770    27.2320 c3         1 Q3L       0.077900
     22 C12         17.0080    22.3640    25.4190 c3         1 Q3L       0.077900
     23 C11         19.4150    22.0900    25.5620 c3         1 Q3L       0.077900
     24 O1          13.0080    28.9440    20.2400 oh         1 Q3L      -0.663000
     25 O4          17.2640    24.9910    23.0140 o          1 Q3L      -0.658500
     26 O5          16.5170    28.7720    25.8750 oh         1 Q3L      -0.741000
     27 O6          13.7560    29.5030    25.6750 oh         1 Q3L      -0.666000
     28 O7          13.9940    31.4520    23.7420 oh         1 Q3L      -0.689000
     29 S1          18.5840    29.8770    23.7910 ss         1 Q3L      -0.300300
     30 H1          14.5340    28.1940    24.2690 h1         1 Q3L       0.056700
     31 H2          18.3830    27.4130    25.4010 hn         1 Q3L       0.358000
     32 H3          15.3450    30.1800    20.1520 h1         1 Q3L       0.046700
     33 H5          14.9200    28.8030    21.9670 h1         1 Q3L       0.057700
     34 H6          16.8190    28.3320    23.2840 h2         1 Q3L       0.091700
     35 H7          21.3420    26.0750    22.7680 h4         1 Q3L       0.045100
     36 H8          20.5580    24.3210    24.6680 hc         1 Q3L       0.053700
     37 H9          20.0660    25.1230    26.1520 hc         1 Q3L       0.053700
     38 H10         12.5260    30.7700    21.1130 h1         1 Q3L       0.046700
     39 H11         15.6240    32.2580    21.6340 hn         1 Q3L       0.405500
     40 H12         15.1170    32.4350    20.1170 hn         1 Q3L       0.405500
     41 H14         13.0810    32.0660    19.1020 hc         1 Q3L       0.044367
     42 H15         13.7150    30.6260    18.3010 hc         1 Q3L       0.044367
     43 H16         11.9920    30.7540    18.6790 hc         1 Q3L       0.044367
     44 H17         13.0630    29.7040    23.1330 h1         1 Q3L       0.042700
     45 H18         17.6600    24.9860    25.4210 hx         1 Q3L       0.068700
     46 H19         16.1020    30.6630    25.1320 h1         1 Q3L       0.075700
     47 H20         17.3770    24.0270    27.4160 hx         1 Q3L       0.086256
     48 H21         18.1160    22.4550    27.7970 hx         1 Q3L       0.086256
     49 H22         19.1430    23.8720    27.5400 hx         1 Q3L       0.086256
     50 H23         16.1910    23.0770    25.5060 hx         1 Q3L       0.086256
     51 H24         17.0720    21.9840    24.4060 hx         1 Q3L       0.086256
     52 H25         16.8480    21.5390    26.1080 hx         1 Q3L       0.086256
     53 H26         19.1830    21.1680    26.0910 hx         1 Q3L       0.086256
     54 H27         19.5200    21.9050    24.5000 hx         1 Q3L       0.086256
     55 H28         20.3320    22.5070    25.9680 hx         1 Q3L       0.086256
     56 H29         12.7130    28.5730    21.0760 ho         1 Q3L       0.436000
     57 H31         17.1100    29.2820    26.4360 ho         1 Q3L       0.517000
     58 H32         14.1530    29.0930    26.4510 ho         1 Q3L       0.460000
     59 H33         13.5250    31.5160    24.5820 ho         1 Q3L       0.514000
@<TRIPOS>BOND
     1     1    20 1   
     2     2    16 1   
     3     2    19 1   
     4     2    27 1   
     5     2    30 1   
     6     3     9 1   
     7     3    11 1   
     8     3    31 1   
     9     4     6 1   
    10     4    13 1   
    11     4    14 1   
    12     4    32 1   
    13     5     9 2   
    14     5    10 1   
    15     6    16 1   
    16     6    17 1   
    17     6    33 1   
    18     7    17 1   
    19     7    19 1   
    20     7    29 1   
    21     7    34 1   
    22     8    18 1   
    23     8    21 1   
    24     8    22 1   
    25     8    23 1   
    26     9    29 1   
    27    10    11 2   
    28    10    35 1   
    29    11    12 1   
    30    12    18 1   
    31    12    36 1   
    32    12    37 1   
    33    13    15 1   
    34    13    24 1   
    35    13    38 1   
    36    14    39 1   
    37    14    40 1   
    38    15    41 1   
    39    15    42 1   
    40    15    43 1   
    41    16    28 1   
    42    16    44 1   
    43    18    20 1   
    44    18    45 1   
    45    19    26 1   
    46    19    46 1   
    47    20    25 1   
    48    21    47 1   
    49    21    48 1   
    50    21    49 1   
    51    22    50 1   
    52    22    51 1   
    53    22    52 1   
    54    23    53 1   
    55    23    54 1   
    56    23    55 1   
    57    24    56 1   
    58    26    57 1   
    59    27    58 1   
    60    28    59 1   
@<TRIPOS>SUBSTRUCTURE
     1 Q3L         1 TEMP              0 ****  ****    0 ROOT
