@<TRIPOS>MOLECULE
Q3M
   35    35     1     0     0
SMALL
No Charge or Current Charge


@<TRIPOS>ATOM
      1 C01        -14.0630   -12.8310     4.9560 c3         1 Q3M       0.051900
      2 S02        -13.4220   -11.1130     5.2180 ss         1 Q3M      -0.477000
      3 C03        -15.0190   -10.1500     5.2040 c6         1 Q3M       0.070300
      4 C04        -15.7740   -10.2410     6.5570 c6         1 Q3M      -0.057400
      5 C05        -15.0470    -9.4510     7.6870 c6         1 Q3M      -0.097700
      6 C06        -15.7740    -9.5680     9.0590 c3         1 Q3M       0.167600
      7 O07        -15.7820   -10.9140     9.5460 oh         1 Q3M      -0.657000
      8 C08        -14.8120    -7.9670     7.2700 c6         1 Q3M       0.142300
      9 O09        -16.0540    -7.2460     7.1820 oh         1 Q3M      -0.643000
     10 C10        -14.0560    -7.8860     5.9050 c6         1 Q3M       0.168300
     11 O11        -13.8760    -6.5060     5.5430 oh         1 Q3M      -0.635000
     12 C12        -14.8290    -8.6600     4.7870 c6         1 Q3M       0.134700
     13 N13        -14.1390    -8.5560     3.4860 ns         1 Q3M      -0.485900
     14 C14        -14.7140    -8.7710     2.2590 c          1 Q3M       0.606100
     15 C15        -13.7750    -8.6060     1.0720 c3         1 Q3M      -0.177100
     16 O16        -15.8920    -9.0710     2.1330 o          1 Q3M      -0.616100
     17 H1         -13.2230   -13.5360     4.9130 h1         1 Q3M       0.061033
     18 H2         -14.7250   -13.1170     5.7840 h1         1 Q3M       0.061033
     19 H3         -14.6220   -12.8830     4.0130 h1         1 Q3M       0.061033
     20 H4         -15.6510   -10.6230     4.4380 h1         1 Q3M       0.087700
     21 H5         -16.7950    -9.8530     6.4310 hc         1 Q3M       0.060700
     22 H6         -15.8880   -11.2950     6.8430 hc         1 Q3M       0.060700
     23 H7         -14.0590    -9.9070     7.8440 hc         1 Q3M       0.081700
     24 H8         -15.2610    -8.9190     9.7810 h1         1 Q3M       0.016200
     25 H9         -16.8030    -9.2010     8.9530 h1         1 Q3M       0.016200
     26 H10        -16.2510   -10.9030    10.4100 ho         1 Q3M       0.445000
     27 H11        -14.1750    -7.4980     8.0340 h1         1 Q3M       0.025700
     28 H12        -16.3650    -7.0890     8.1010 ho         1 Q3M       0.440000
     29 H13        -13.0700    -8.3560     6.0320 h1         1 Q3M       0.041700
     30 H14        -14.6970    -6.0590     5.8500 ho         1 Q3M       0.441000
     31 H15        -15.8260    -8.2040     4.6810 h1         1 Q3M       0.110700
     32 H16        -13.1590    -8.2990     3.4880 hn         1 Q3M       0.318500
     33 H17        -13.3180    -7.6110     1.1130 hc         1 Q3M       0.059033
     34 H18        -12.9100    -9.2650     1.2080 hc         1 Q3M       0.059033
     35 H19        -14.2720    -8.7840     0.1120 hc         1 Q3M       0.059033
@<TRIPOS>BOND
     1     1     2 1   
     2     1    17 1   
     3     1    18 1   
     4     1    19 1   
     5     2     3 1   
     6     3     4 1   
     7     3    12 1   
     8     3    20 1   
     9     4     5 1   
    10     4    21 1   
    11     4    22 1   
    12     5     6 1   
    13     5     8 1   
    14     5    23 1   
    15     6     7 1   
    16     6    24 1   
    17     6    25 1   
    18     7    26 1   
    19     8     9 1   
    20     8    10 1   
    21     8    27 1   
    22     9    28 1   
    23    10    11 1   
    24    10    12 1   
    25    10    29 1   
    26    11    30 1   
    27    12    13 1   
    28    12    31 1   
    29    13    14 1   
    30    13    32 1   
    31    14    15 1   
    32    14    16 2   
    33    15    33 1   
    34    15    34 1   
    35    15    35 1   
@<TRIPOS>SUBSTRUCTURE
     1 Q3M         1 TEMP              0 ****  ****    0 ROOT
