@<TRIPOS>MOLECULE
Q3M
   35    35     1     0     0
SMALL
abcg2


@<TRIPOS>ATOM
      1 C01        -14.0420   -12.7680     5.0690 c3         1 Q3M       0.051900
      2 S02        -13.4530   -11.0690     5.2290 ss         1 Q3M      -0.477000
      3 C03        -15.0520   -10.1770     5.2020 c6         1 Q3M       0.070300
      4 C04        -15.7920   -10.2680     6.5300 c6         1 Q3M      -0.057400
      5 C05        -15.0940    -9.4830     7.6370 c6         1 Q3M      -0.097700
      6 C06        -15.8210    -9.5810     8.9690 c3         1 Q3M       0.167600
      7 O07        -15.7980   -10.9200     9.4090 oh         1 Q3M      -0.657000
      8 C08        -14.9010    -8.0220     7.2210 c6         1 Q3M       0.142300
      9 O09        -16.1220    -7.3420     7.0310 oh         1 Q3M      -0.643000
     10 C10        -14.1100    -7.9440     5.9120 c6         1 Q3M       0.168300
     11 O11        -13.9230    -6.6230     5.4750 oh         1 Q3M      -0.635000
     12 C12        -14.8300    -8.7100     4.8020 c6         1 Q3M       0.134700
     13 N13        -14.1280    -8.5720     3.5500 ns         1 Q3M      -0.485900
     14 C14        -14.7380    -8.6230     2.3530 c          1 Q3M       0.606100
     15 C15        -13.8290    -8.4880     1.1570 c3         1 Q3M      -0.177100
     16 O16        -15.9480    -8.7580     2.2280 o          1 Q3M      -0.616100
     17 H1         -13.1650   -13.4100     4.9980 h1         1 Q3M       0.061033
     18 H2         -14.6260   -13.0790     5.9330 h1         1 Q3M       0.061033
     19 H3         -14.6380   -12.8900     4.1660 h1         1 Q3M       0.061033
     20 H4         -15.6490   -10.6500     4.4180 h1         1 Q3M       0.087700
     21 H5         -16.8050    -9.8770     6.3860 hc         1 Q3M       0.060700
     22 H6         -15.9090   -11.3140     6.8180 hc         1 Q3M       0.060700
     23 H7         -14.0910    -9.9020     7.7820 hc         1 Q3M       0.081700
     24 H8         -15.3280    -8.9160     9.6940 h1         1 Q3M       0.016200
     25 H9         -16.8530    -9.2220     8.8560 h1         1 Q3M       0.016200
     26 H10        -16.3440   -10.9870    10.1980 ho         1 Q3M       0.445000
     27 H11        -14.3020    -7.5190     7.9970 h1         1 Q3M       0.025700
     28 H12        -16.4800    -7.0930     7.8880 ho         1 Q3M       0.440000
     29 H13        -13.1380    -8.4290     6.1030 h1         1 Q3M       0.041700
     30 H14        -13.3990    -6.1570     6.1340 ho         1 Q3M       0.441000
     31 H15        -15.8230    -8.2720     4.6700 h1         1 Q3M       0.110700
     32 H16        -13.1220    -8.5150     3.5740 hn         1 Q3M       0.318500
     33 H17        -14.1150    -7.6040     0.5870 hc         1 Q3M       0.059033
     34 H18        -12.7740    -8.4030     1.4150 hc         1 Q3M       0.059033
     35 H19        -13.9580    -9.3510     0.5040 hc         1 Q3M       0.059033
@<TRIPOS>BOND
     1     1     2 1   
     2     1    17 1   
     3     1    18 1   
     4     1    19 1   
     5     2     3 1   
     6     3     4 1   
     7     3    12 1   
     8     3    20 1   
     9     4     5 1   
    10     4    21 1   
    11     4    22 1   
    12     5     6 1   
    13     5     8 1   
    14     5    23 1   
    15     6     7 1   
    16     6    24 1   
    17     6    25 1   
    18     7    26 1   
    19     8     9 1   
    20     8    10 1   
    21     8    27 1   
    22     9    28 1   
    23    10    11 1   
    24    10    12 1   
    25    10    29 1   
    26    11    30 1   
    27    12    13 1   
    28    12    31 1   
    29    13    14 1   
    30    13    32 1   
    31    14    15 1   
    32    14    16 2   
    33    15    33 1   
    34    15    34 1   
    35    15    35 1   
@<TRIPOS>SUBSTRUCTURE
     1 Q3M         1 TEMP              0 ****  ****    0 ROOT
