@<TRIPOS>MOLECULE
Q3O
   15    15     1     0     0
SMALL
No Charge or Current Charge


@<TRIPOS>ATOM
      1 C02         19.7070    17.4010   -13.5360 cc         1 Q3O      -0.033100
      2 C03         19.4360    17.3640   -14.9020 cd         1 Q3O      -0.012200
      3 C04         18.2450    16.6380   -15.5120 c          1 Q3O       0.720200
      4 C08         21.5140    18.7810   -15.3040 cc         1 Q3O       0.028000
      5 C09         21.7220    18.7780   -13.9470 cd         1 Q3O      -0.413200
      6 C10         20.8700    18.1140   -12.9810 c          1 Q3O       0.517500
      7 N07         20.3740    18.0690   -15.7160 na         1 Q3O      -0.583000
      8 O01         18.9650    16.8080   -12.5630 oh         1 Q3O      -0.502100
      9 O05         17.4380    16.0320   -14.8190 o          1 Q3O      -0.699000
     10 O06         18.1340    16.6910   -16.7320 o          1 Q3O      -0.699000
     11 O11         21.1130    18.1490   -11.7780 o          1 Q3O      -0.691100
     12 H081        22.1380    19.2720   -16.0510 h4         1 Q3O       0.178000
     13 H091        22.5710    19.2950   -13.5150 ha         1 Q3O       0.184000
     14 H071        20.1750    18.0420   -16.7210 hn         1 Q3O       0.538000
     15 H1          19.4290    17.0280   -11.7200 ho         1 Q3O       0.466000
@<TRIPOS>BOND
     1     1     2 2   
     2     1     6 1   
     3     1     8 1   
     4     2     3 1   
     5     2     7 1   
     6     3     9 1   
     7     3    10 1   
     8     4     5 2   
     9     4     7 1   
    10     4    12 1   
    11     5     6 1   
    12     5    13 1   
    13     6    11 2   
    14     7    14 1   
    15     8    15 1   
@<TRIPOS>SUBSTRUCTURE
     1 Q3O         1 TEMP              0 ****  ****    0 ROOT
