@<TRIPOS>MOLECULE
Q3O
   15    15     1     0     0
SMALL
abcg2


@<TRIPOS>ATOM
      1 C02         19.7300    17.4230   -13.5000 cc         1 Q3O      -0.033100
      2 C03         19.4590    17.3780   -14.8410 cd         1 Q3O      -0.012200
      3 C04         18.3120    16.6790   -15.5660 c          1 Q3O       0.720200
      4 C08         21.4070    18.7010   -15.2730 cc         1 Q3O       0.028000
      5 C09         21.7240    18.7680   -13.9410 cd         1 Q3O      -0.413200
      6 C10         20.8950    18.1300   -12.9790 c          1 Q3O       0.517500
      7 N07         20.3200    18.0340   -15.6820 na         1 Q3O      -0.583000
      8 O01         18.9760    16.8420   -12.5450 oh         1 Q3O      -0.502100
      9 O05         17.5210    15.9950   -14.8870 o          1 Q3O      -0.699000
     10 O06         18.2940    16.8680   -16.8110 o          1 Q3O      -0.699000
     11 O11         21.0750    18.1210   -11.7300 o          1 Q3O      -0.691100
     12 H081        22.0000    19.1700   -16.0440 h4         1 Q3O       0.178000
     13 H091        22.6040    19.3070   -13.6190 ha         1 Q3O       0.184000
     14 H071        20.0570    17.9730   -16.6610 hn         1 Q3O       0.538000
     15 H1          19.4570    17.0740   -11.7180 ho         1 Q3O       0.466000
@<TRIPOS>BOND
     1     1     2 2   
     2     1     6 1   
     3     1     8 1   
     4     2     3 1   
     5     2     7 1   
     6     3     9 1   
     7     3    10 1   
     8     4     5 2   
     9     4     7 1   
    10     4    12 1   
    11     5     6 1   
    12     5    13 1   
    13     6    11 2   
    14     7    14 1   
    15     8    15 1   
@<TRIPOS>SUBSTRUCTURE
     1 Q3O         1 TEMP              0 ****  ****    0 ROOT
