@<TRIPOS>MOLECULE
Q3P
   30    29     1     0     0
SMALL
bcc


@<TRIPOS>ATOM
      1 C1          -4.1140    -0.0820    -0.0850 c          1 Q3P       0.662100
      2 C4          -5.1970     0.7920     0.5260 c3         1 Q3P       0.066800
      3 N            3.6180    -1.7450     0.2140 n8         1 Q3P      -0.878800
      4 CA           3.4010    -0.4110    -0.3250 c3         1 Q3P       0.020500
      5 C            4.5990     0.5090    -0.0050 c          1 Q3P       0.933600
      6 O            5.3270     0.1920     0.9560 o          1 Q3P      -0.836800
      7 CB           2.1110     0.2730     0.1580 c3         1 Q3P      -0.100400
      8 CG           0.8340    -0.4160    -0.3050 c3         1 Q3P      -0.075400
      9 CD          -0.4230     0.3040     0.1660 c3         1 Q3P      -0.096400
     10 CE          -1.6900    -0.3490    -0.3630 c3         1 Q3P       0.101000
     11 NZ          -2.8630     0.3680     0.0910 ns         1 Q3P      -0.575900
     12 N5          -6.5080     0.4170     0.0420 n8         1 Q3P      -0.863800
     13 O2          -4.3640    -1.1320    -0.6600 o          1 Q3P      -0.601100
     14 OXT          4.7160     1.5250    -0.7200 o          1 Q3P      -0.836800
     15 H4          -5.0780     0.7350     1.6180 h1         1 Q3P       0.038700
     16 H41         -5.0050     1.8350     0.2610 h1         1 Q3P       0.038700
     17 HA           3.3310    -0.4940    -1.4170 h1         1 Q3P       0.043700
     18 HB3          2.1250     0.3300     1.2530 hc         1 Q3P       0.042700
     19 HB2          2.1010     1.3040    -0.2060 hc         1 Q3P       0.042700
     20 HG3          0.8350    -0.4690    -1.3990 hc         1 Q3P       0.032200
     21 HG2          0.8020    -1.4510     0.0510 hc         1 Q3P       0.032200
     22 HD3         -0.4510     0.3200     1.2600 hc         1 Q3P       0.038700
     23 HD2         -0.3870     1.3480    -0.1620 hc         1 Q3P       0.038700
     24 HE3         -1.6610    -0.3750    -1.4570 h1         1 Q3P       0.049700
     25 HE2         -1.7420    -1.3870    -0.0250 h1         1 Q3P       0.049700
     26 HZ3         -2.7250     1.2580     0.5450 hn         1 Q3P       0.308500
     27 HN5         -6.7320    -0.5170     0.3590 hn         1 Q3P       0.342300
     28 HN51        -7.1950     1.0270     0.4640 hn         1 Q3P       0.342300
     29 H2           3.9030    -1.6540     1.1810 hn         1 Q3P       0.319800
     30 H1           2.7560    -2.2750     0.2120 hn         1 Q3P       0.319800
@<TRIPOS>BOND
     1     1     2 1   
     2     1    11 1   
     3     1    13 2   
     4     2    12 1   
     5     2    15 1   
     6     2    16 1   
     7     3     4 1   
     8     3    29 1   
     9     3    30 1   
    10     4     5 1   
    11     4     7 1   
    12     4    17 1   
    13     5     6 1   
    14     5    14 1   
    15     7     8 1   
    16     7    18 1   
    17     7    19 1   
    18     8     9 1   
    19     8    20 1   
    20     8    21 1   
    21     9    10 1   
    22     9    22 1   
    23     9    23 1   
    24    10    11 1   
    25    10    24 1   
    26    10    25 1   
    27    11    26 1   
    28    12    27 1   
    29    12    28 1   
@<TRIPOS>SUBSTRUCTURE
     1 Q3P         1 TEMP              0 ****  ****    0 ROOT
