@<TRIPOS>MOLECULE
Q3P
   30    29     1     0     0
SMALL
No Charge or Current Charge


@<TRIPOS>ATOM
      1 C1          -4.1710    -0.1360    -0.0990 c          1 Q3P       0.662100
      2 C4          -5.2910     0.7610     0.5310 c3         1 Q3P       0.066800
      3 N            3.6340    -1.7710     0.1730 n8         1 Q3P      -0.878800
      4 CA           3.5000    -0.3530    -0.3320 c3         1 Q3P       0.020500
      5 C            4.7360     0.6230    -0.0870 c          1 Q3P       0.933600
      6 O            5.1170     0.8240     1.0640 o          1 Q3P      -0.836800
      7 CB           2.1820     0.2760     0.1960 c3         1 Q3P      -0.100400
      8 CG           0.8910    -0.4230    -0.2990 c3         1 Q3P      -0.075400
      9 CD          -0.3970     0.2750     0.1910 c3         1 Q3P      -0.096400
     10 CE          -1.6800    -0.4200    -0.3020 c3         1 Q3P       0.101000
     11 NZ          -2.8800     0.2660     0.1770 ns         1 Q3P      -0.575900
     12 N5          -6.6870     0.6170    -0.0100 n8         1 Q3P      -0.863800
     13 O2          -4.4010    -1.1280    -0.7830 o          1 Q3P      -0.601100
     14 OXT          5.3220     1.0890    -1.0610 o          1 Q3P      -0.836800
     15 H4          -5.3100     0.5470     1.6080 h1         1 Q3P       0.038700
     16 H41         -4.9860     1.8090     0.4080 h1         1 Q3P       0.038700
     17 HA           3.3980    -0.4260    -1.4240 h1         1 Q3P       0.043700
     18 HB3          2.1960     0.2880     1.2930 hc         1 Q3P       0.042700
     19 HB2          2.1490     1.3250    -0.1260 hc         1 Q3P       0.042700
     20 HG3          0.8910    -0.4470    -1.3960 hc         1 Q3P       0.032200
     21 HG2          0.8780    -1.4650     0.0440 hc         1 Q3P       0.032200
     22 HD3         -0.4000     0.3000     1.2870 hc         1 Q3P       0.038700
     23 HD2         -0.3970     1.3160    -0.1560 hc         1 Q3P       0.038700
     24 HE3         -1.6930    -0.4330    -1.4010 h1         1 Q3P       0.049700
     25 HE2         -1.6970    -1.4580     0.0560 h1         1 Q3P       0.049700
     26 HZ3         -2.7720     1.0940     0.7500 hn         1 Q3P       0.308500
     27 HN5         -7.0020    -0.3510     0.1200 hn         1 Q3P       0.342300
     28 HN51        -7.3340     1.1780     0.5560 hn         1 Q3P       0.342300
     29 H2           3.7950    -1.7470     1.1850 hn         1 Q3P       0.319800
     30 H1           2.7350    -2.2500     0.0650 hn         1 Q3P       0.319800
@<TRIPOS>BOND
     1     1     2 1   
     2     1    11 1   
     3     1    13 2   
     4     2    12 1   
     5     2    15 1   
     6     2    16 1   
     7     3     4 1   
     8     3    29 1   
     9     3    30 1   
    10     4     5 1   
    11     4     7 1   
    12     4    17 1   
    13     5     6 1   
    14     5    14 1   
    15     7     8 1   
    16     7    18 1   
    17     7    19 1   
    18     8     9 1   
    19     8    20 1   
    20     8    21 1   
    21     9    10 1   
    22     9    22 1   
    23     9    23 1   
    24    10    11 1   
    25    10    24 1   
    26    10    25 1   
    27    11    26 1   
    28    12    27 1   
    29    12    28 1   
@<TRIPOS>SUBSTRUCTURE
     1 Q3P         1 TEMP              0 ****  ****    0 ROOT
