@<TRIPOS>MOLECULE
Q3S
   17    16     1     0     0
SMALL
bcc


@<TRIPOS>ATOM
      1 N           -0.1460     1.9270    -0.3880 n8         1 Q3S      -0.872800
      2 CA          -0.0870     0.4770    -0.5100 c3         1 Q3S       0.029500
      3 C            1.3100    -0.0180    -0.0850 c          1 Q3S       0.931600
      4 O            1.7440     0.4360     0.9950 o          1 Q3S      -0.840800
      5 C02         -1.1770    -0.2370     0.3130 c3         1 Q3S       0.124500
      6 N2          -2.4800     0.3010    -0.0750 n8         1 Q3S      -0.896800
      7 OXT          1.8860    -0.8380    -0.8270 o          1 Q3S      -0.840800
      8 H1          -1.1220     2.2030    -0.3710 hn         1 Q3S       0.328300
      9 H            0.2310     2.1700     0.5210 hn         1 Q3S       0.328300
     10 HA          -0.2460     0.2080    -1.5620 h1         1 Q3S       0.041700
     11 H021        -1.0190     0.0400     1.3620 h1         1 Q3S       0.059700
     12 H2          -2.7150    -0.0430    -1.0010 hn         1 Q3S       0.315300
     13 H4          -3.1930    -0.0700     0.5400 hn         1 Q3S       0.315300
     14 C01         -1.1070    -1.7580     0.1940 c3         1 Q3S      -0.106100
     15 H011        -1.9240    -2.2190     0.7540 hc         1 Q3S       0.028033
     16 H013        -1.2020    -2.0710    -0.8490 hc         1 Q3S       0.028033
     17 H012        -0.1740    -2.1690     0.5790 hc         1 Q3S       0.028033
@<TRIPOS>BOND
     1     1     2 1   
     2     1     8 1   
     3     1     9 1   
     4     2     3 1   
     5     2     5 1   
     6     2    10 1   
     7     3     4 1   
     8     3     7 1   
     9     5     6 1   
    10     5    11 1   
    11     5    14 1   
    12     6    12 1   
    13     6    13 1   
    14    14    15 1   
    15    14    16 1   
    16    14    17 1   
@<TRIPOS>SUBSTRUCTURE
     1 Q3S         1 TEMP              0 ****  ****    0 ROOT
