@<TRIPOS>MOLECULE
Q3S
   17    16     1     0     0
SMALL
No Charge or Current Charge


@<TRIPOS>ATOM
      1 N           -0.1750     1.9910    -0.3940 n8         1 Q3S      -0.983200
      2 CA          -0.0390     0.4890    -0.4980 c3         1 Q3S       0.029500
      3 C            1.3850    -0.1040    -0.1340 c          1 Q3S       0.721000
      4 O            1.8330     0.0980     0.9890 o          1 Q3S      -0.735500
      5 C02         -1.1670    -0.1910     0.3450 c3         1 Q3S       0.124500
      6 N2          -2.5030     0.2880    -0.0870 n8         1 Q3S      -1.007200
      7 OXT          2.0250    -0.6660    -1.0150 o          1 Q3S      -0.735500
      8 H1          -1.1870     2.1760    -0.3910 hn         1 Q3S       0.383500
      9 H            0.1120     2.2720     0.5510 hn         1 Q3S       0.383500
     10 HA          -0.2220     0.2280    -1.5500 h1         1 Q3S       0.041700
     11 H021        -1.0300     0.0890     1.4010 h1         1 Q3S       0.059700
     12 H2          -2.6510     0.0140    -1.0640 hn         1 Q3S       0.370500
     13 H4          -3.2240    -0.2340     0.4230 hn         1 Q3S       0.370500
     14 C01         -1.1480    -1.7340     0.2660 c3         1 Q3S      -0.106100
     15 H011        -1.9840    -2.1640     0.8300 hc         1 Q3S       0.028033
     16 H013        -1.2220    -2.0760    -0.7740 hc         1 Q3S       0.028033
     17 H012        -0.2230    -2.1380     0.6930 hc         1 Q3S       0.028033
@<TRIPOS>BOND
     1     1     2 1   
     2     1     8 1   
     3     1     9 1   
     4     2     3 1   
     5     2     5 1   
     6     2    10 1   
     7     3     4 1   
     8     3     7 1   
     9     5     6 1   
    10     5    11 1   
    11     5    14 1   
    12     6    12 1   
    13     6    13 1   
    14    14    15 1   
    15    14    16 1   
    16    14    17 1   
@<TRIPOS>SUBSTRUCTURE
     1 Q3S         1 TEMP              0 ****  ****    0 ROOT
