@<TRIPOS>MOLECULE
Q3U
   29    30     1     0     0
SMALL
No Charge or Current Charge


@<TRIPOS>ATOM
      1 N1           5.8920     2.5630    18.2590 nb         1 Q3U      -0.614000
      2 N3           9.5760    -0.1610    21.8680 ns         1 Q3U      -0.166000
      3 C4           8.9700     0.6900    20.9530 c          1 Q3U       0.669100
      4 C5          10.8890    -0.2050    22.4120 ca         1 Q3U       0.002000
      5 C6          11.9100     0.7140    22.0750 ca         1 Q3U      -0.127000
      6 C7          13.1870     0.6050    22.6570 ca         1 Q3U      -0.075000
      7 C8          13.4560    -0.4190    23.5790 ca         1 Q3U      -0.127000
      8 C10         11.1740    -1.2270    23.3380 ca         1 Q3U      -0.164000
      9 C9          12.4480    -1.3340    23.9170 ca         1 Q3U       0.152000
     10 O            9.5290     1.6360    20.4130 o          1 Q3U      -0.596100
     11 N2           7.6490     0.3370    20.7230 ns         1 Q3U      -0.161000
     12 C3           6.6480     0.9020    19.8830 ca         1 Q3U      -0.020000
     13 C2           6.8570     2.0370    19.0540 ca         1 Q3U       0.277900
     14 C1           4.6750     1.9630    18.2690 ca         1 Q3U       0.251900
     15 C11          5.3760     0.2930    19.8800 ca         1 Q3U      -0.211000
     16 C            4.3650     0.8230    19.0640 ca         1 Q3U       0.269000
     17 N            3.1210     0.2220    19.0650 nv         1 Q3U      -1.073000
     18 H1           8.9690    -0.8920    22.2160 hn         1 Q3U       0.149000
     19 H2          11.7390     1.5180    21.3670 ha         1 Q3U       0.151000
     20 H3          13.9670     1.3160    22.3920 ha         1 Q3U       0.123000
     21 H4          14.4420    -0.5050    24.0290 ha         1 Q3U       0.133000
     22 H5          10.4050    -1.9450    23.6120 ha         1 Q3U       0.125000
     23 H6           7.3350    -0.4700    21.2460 hn         1 Q3U       0.148000
     24 H7           7.8140     2.5510    19.0120 h4         1 Q3U       0.054100
     25 H8           3.9200     2.4060    17.6210 h4         1 Q3U       0.021100
     26 H9           5.1800    -0.5770    20.5010 ha         1 Q3U       0.113000
     27 H10          2.9100    -0.5160    19.7370 hn         1 Q3U       0.454000
     28 H11          2.3370     0.6540    18.5750 hn         1 Q3U       0.454000
     29 Cl          12.7810    -2.6180    25.0710 cl         1 Q3U      -0.212000
@<TRIPOS>BOND
     1     1    13 ar  
     2     1    14 ar  
     3     2     3 1   
     4     2     4 1   
     5     2    18 1   
     6     3    10 2   
     7     3    11 1   
     8     4     5 ar  
     9     4     8 ar  
    10     5     6 ar  
    11     5    19 1   
    12     6     7 ar  
    13     6    20 1   
    14     7     9 ar  
    15     7    21 1   
    16     8     9 ar  
    17     8    22 1   
    18     9    29 1   
    19    11    12 1   
    20    11    23 1   
    21    12    13 ar  
    22    12    15 ar  
    23    13    24 1   
    24    14    16 ar  
    25    14    25 1   
    26    15    16 ar  
    27    15    26 1   
    28    16    17 1   
    29    17    27 1   
    30    17    28 1   
@<TRIPOS>SUBSTRUCTURE
     1 Q3U         1 TEMP              0 ****  ****    0 ROOT
