@<TRIPOS>MOLECULE
Q3U
   29    30     1     0     0
SMALL
abcg2


@<TRIPOS>ATOM
      1 N1           6.1920     2.0510    17.9620 nb         1 Q3U      -0.614000
      2 N3           9.5030    -0.3380    21.9450 ns         1 Q3U      -0.166000
      3 C4           8.9000     0.4870    21.0200 c          1 Q3U       0.669100
      4 C5          10.8100    -0.2470    22.4390 ca         1 Q3U       0.002000
      5 C6          11.5690     0.9280    22.4130 ca         1 Q3U      -0.127000
      6 C7          12.8480     0.9310    22.9550 ca         1 Q3U      -0.075000
      7 C8          13.3980    -0.2070    23.5330 ca         1 Q3U      -0.127000
      8 C10         11.3510    -1.4010    23.0180 ca         1 Q3U      -0.164000
      9 C9          12.6270    -1.3610    23.5540 ca         1 Q3U       0.152000
     10 O            9.4690     1.4180    20.4650 o          1 Q3U      -0.596100
     11 N2           7.5880     0.1420    20.7920 ns         1 Q3U      -0.161000
     12 C3           6.6970     0.7180    19.8780 ca         1 Q3U      -0.020000
     13 C2           7.0850     1.5460    18.8170 ca         1 Q3U       0.277900
     14 C1           4.9030     1.7660    18.1050 ca         1 Q3U       0.251900
     15 C11          5.3440     0.4160    20.0260 ca         1 Q3U      -0.211000
     16 C            4.4140     0.9370    19.1280 ca         1 Q3U       0.269000
     17 N            3.0720     0.6120    19.2010 nv         1 Q3U      -1.073000
     18 H1           9.0050    -1.1750    22.2070 hn         1 Q3U       0.149000
     19 H2          11.1610     1.8240    21.9750 ha         1 Q3U       0.151000
     20 H3          13.4270     1.8450    22.9310 ha         1 Q3U       0.123000
     21 H4          14.3930    -0.1990    23.9560 ha         1 Q3U       0.133000
     22 H5          10.7760    -2.3170    23.0450 ha         1 Q3U       0.125000
     23 H6           7.1770    -0.5410    21.4120 hn         1 Q3U       0.148000
     24 H7           8.1200     1.8020    18.6640 h4         1 Q3U       0.054100
     25 H8           4.2130     2.2000    17.3880 h4         1 Q3U       0.021100
     26 H9           5.0160    -0.2250    20.8360 ha         1 Q3U       0.113000
     27 H10          2.7370     0.3140    20.1050 hn         1 Q3U       0.454000
     28 H11          2.4410     1.2560    18.7480 hn         1 Q3U       0.454000
     29 CL          13.2830    -2.8190    24.2720 cl         1 Q3U      -0.212000
@<TRIPOS>BOND
     1     1    13 ar  
     2     1    14 ar  
     3     2     3 1   
     4     2     4 1   
     5     2    18 1   
     6     3    10 2   
     7     3    11 1   
     8     4     5 ar  
     9     4     8 ar  
    10     5     6 ar  
    11     5    19 1   
    12     6     7 ar  
    13     6    20 1   
    14     7     9 ar  
    15     7    21 1   
    16     8     9 ar  
    17     8    22 1   
    18     9    29 1   
    19    11    12 1   
    20    11    23 1   
    21    12    13 ar  
    22    12    15 ar  
    23    13    24 1   
    24    14    16 ar  
    25    14    25 1   
    26    15    16 ar  
    27    15    26 1   
    28    16    17 1   
    29    17    27 1   
    30    17    28 1   
@<TRIPOS>SUBSTRUCTURE
     1 Q3U         1 TEMP              0 ****  ****    0 ROOT
