@<TRIPOS>MOLECULE
Q3Y
   52    56     1     0     0
SMALL
No Charge or Current Charge


@<TRIPOS>ATOM
      1 N1           1.4640    -0.9390    -0.0590 n          1 Q3Y       0.055600
      2 C2           1.5470    -3.5250     0.0170 ca         1 Q3Y      -0.138000
      3 C4          -0.4500    -2.1650     0.0600 ca         1 Q3Y      -0.263900
      4 C8           3.1760     0.8600    -0.1100 ca         1 Q3Y      -0.100600
      5 C7           2.8520    -0.6050    -0.1400 c          1 Q3Y       0.657700
      6 C6          -0.7230    -0.7580     0.0310 cc         1 Q3Y       0.619800
      7 C9           3.6220     1.5450    -1.2730 ca         1 Q3Y       0.012700
      8 C10          3.9200     2.9240    -1.1730 ca         1 Q3Y      -0.118000
      9 C5          -1.2710    -3.2920     0.2040 ca         1 Q3Y       0.257000
     10 C13          3.0410     1.5580     1.1100 ca         1 Q3Y       0.161000
     11 C12          3.3400     2.9260     1.1840 ca         1 Q3Y      -0.110000
     12 C11          3.7780     3.6100     0.0430 ca         1 Q3Y      -0.087000
     13 C17         -2.2650     1.0850     0.6280 c6         1 Q3Y       0.147800
     14 C16          3.4930     1.5280    -3.9310 cx         1 Q3Y      -0.120400
     15 C15          4.9030     1.1370    -3.5610 cx         1 Q3Y      -0.120400
     16 C14          3.7630     0.8360    -2.6110 cx         1 Q3Y      -0.089400
     17 N            0.3790    -0.0220    -0.0240 nd         1 Q3Y      -0.537300
     18 C           -0.6620    -4.5610     0.2260 ca         1 Q3Y      -0.204000
     19 O            3.7500    -1.4410    -0.2160 o          1 Q3Y      -0.555100
     20 C20         -4.3640    -0.4350    -0.7520 c6         1 Q3Y      -0.063400
     21 C19         -4.7130     0.9440    -0.1170 c6         1 Q3Y      -0.190700
     22 C18         -3.7560     1.2440     1.0670 c6         1 Q3Y       0.182300
     23 O3          -3.9900     2.5720     1.5640 oh         1 Q3Y      -0.635000
     24 C21         -2.8700    -0.5200    -1.1490 c6         1 Q3Y       0.194800
     25 N2          -1.9990    -0.2480     0.0210 nh         1 Q3Y      -0.673600
     26 F           -2.6100    -3.1900     0.3480 f          1 Q3Y      -0.153000
     27 C3           0.9150    -2.2680    -0.0090 ca         1 Q3Y      -0.038000
     28 C1           0.7430    -4.6790     0.1260 ca         1 Q3Y      -0.059000
     29 Cl           2.5430     0.7300     2.5870 cl         1 Q3Y      -0.190000
     30 H1           2.6280    -3.6280    -0.0350 ha         1 Q3Y       0.144000
     31 H2           4.2640     3.4800    -2.0410 ha         1 Q3Y       0.115000
     32 H3           3.2380     3.4530     2.1290 ha         1 Q3Y       0.130000
     33 H4           4.0120     4.6710     0.1000 ha         1 Q3Y       0.115000
     34 H5          -2.0110     1.8750    -0.0940 h1         1 Q3Y       0.038200
     35 H6          -1.6200     1.2280     1.5080 h1         1 Q3Y       0.038200
     36 H8           2.9970     0.9530    -4.7090 hc         1 Q3Y       0.073700
     37 H9           5.3520     0.2990    -4.0900 hc         1 Q3Y       0.073700
     38 H10          5.6000     1.9290    -3.2980 hc         1 Q3Y       0.073700
     39 H11          3.4500    -0.2040    -2.5820 hc         1 Q3Y       0.090700
     40 H12         -1.2770    -5.4500     0.3320 ha         1 Q3Y       0.129000
     41 H13         -4.5940    -1.2440    -0.0460 hc         1 Q3Y       0.056700
     42 H14         -4.9890    -0.6090    -1.6380 hc         1 Q3Y       0.056700
     43 H15         -4.5560     1.7140    -0.8860 hc         1 Q3Y       0.041700
     44 H17         -3.9500     0.5080     1.8620 h1         1 Q3Y       0.059700
     45 H18         -3.4550     2.6660     2.3810 ho         1 Q3Y       0.413000
     46 H19         -2.6600    -1.5110    -1.5740 h1         1 Q3Y       0.027200
     47 H20         -2.6640     0.2170    -1.9390 h1         1 Q3Y       0.027200
     48 H21          1.2070    -5.6630     0.1490 ha         1 Q3Y       0.111000
     49 C22         -6.1930     1.0170     0.3090 c          1 Q3Y       0.732000
     50 H7           3.2370     2.5840    -3.9230 hc         1 Q3Y       0.073700
     51 O2          -6.9150     1.8260    -0.2580 o          1 Q3Y      -0.730000
     52 O1          -6.5950     0.2320     1.1560 o          1 Q3Y      -0.730000
@<TRIPOS>BOND
     1     1     5 1   
     2     1    17 1   
     3     1    27 1   
     4     2    27 ar  
     5     2    28 ar  
     6     2    30 1   
     7     3     6 1   
     8     3     9 ar  
     9     3    27 ar  
    10     4     5 1   
    11     4     7 ar  
    12     4    10 ar  
    13     5    19 2   
    14     6    17 2   
    15     6    25 1   
    16     7     8 ar  
    17     7    16 1   
    18     8    12 ar  
    19     8    31 1   
    20     9    18 ar  
    21     9    26 1   
    22    10    11 ar  
    23    10    29 1   
    24    11    12 ar  
    25    11    32 1   
    26    12    33 1   
    27    13    22 1   
    28    13    25 1   
    29    13    34 1   
    30    13    35 1   
    31    14    15 1   
    32    14    16 1   
    33    14    36 1   
    34    14    50 1   
    35    15    16 1   
    36    15    37 1   
    37    15    38 1   
    38    16    39 1   
    39    18    28 ar  
    40    18    40 1   
    41    20    21 1   
    42    20    24 1   
    43    20    41 1   
    44    20    42 1   
    45    21    22 1   
    46    21    43 1   
    47    21    49 1   
    48    22    23 1   
    49    22    44 1   
    50    23    45 1   
    51    24    25 1   
    52    24    46 1   
    53    24    47 1   
    54    28    48 1   
    55    49    51 1   
    56    49    52 1   
@<TRIPOS>SUBSTRUCTURE
     1 Q3Y         1 TEMP              0 ****  ****    0 ROOT
