@<TRIPOS>MOLECULE
Q3Y
   52    56     1     0     0
SMALL
abcg2


@<TRIPOS>ATOM
      1 N1           1.5060    -1.1450    -0.0230 n          1 Q3Y       0.055600
      2 C2           1.7520    -3.6660     0.0280 ca         1 Q3Y      -0.138000
      3 C4          -0.3330    -2.3760     0.0120 ca         1 Q3Y      -0.263900
      4 C8           2.9360     0.8080     0.0540 ca         1 Q3Y      -0.100600
      5 C7           2.7960    -0.6810     0.0150 c          1 Q3Y       0.657700
      6 C6          -0.6300    -0.9580    -0.0190 cc         1 Q3Y       0.619800
      7 C9           3.2200     1.5270    -1.1090 ca         1 Q3Y       0.012700
      8 C10          3.4280     2.9020    -0.9940 ca         1 Q3Y      -0.118000
      9 C5          -1.0550    -3.5570     0.1330 ca         1 Q3Y       0.257000
     10 C13          2.8540     1.4640     1.2760 ca         1 Q3Y       0.161000
     11 C12          3.0610     2.8250     1.3860 ca         1 Q3Y      -0.110000
     12 C11          3.3530     3.5400     0.2320 ca         1 Q3Y      -0.087000
     13 C17         -1.8830     1.0490     0.3480 c6         1 Q3Y       0.147800
     14 C16          2.7390     1.5400    -3.6580 cx         1 Q3Y      -0.120400
     15 C15          4.2040     1.3200    -3.5060 cx         1 Q3Y      -0.120400
     16 C14          3.2660     0.8480    -2.4270 cx         1 Q3Y      -0.089400
     17 N            0.4680    -0.2650    -0.0430 nd         1 Q3Y      -0.537300
     18 C           -0.4130    -4.7720     0.1670 ca         1 Q3Y      -0.204000
     19 O            3.7470    -1.4280     0.0080 o          1 Q3Y      -0.555100
     20 C20         -4.2060    -0.3090    -0.6870 c6         1 Q3Y      -0.063400
     21 C19         -4.2970     1.1760    -0.3330 c6         1 Q3Y      -0.190700
     22 C18         -3.2900     1.4710     0.7650 c6         1 Q3Y       0.182300
     23 O3          -3.3220     2.8570     1.0340 oh         1 Q3Y      -0.635000
     24 C21         -2.7900    -0.7020    -1.0620 c6         1 Q3Y       0.194800
     25 N2          -1.8670    -0.3690     0.0240 nh         1 Q3Y      -0.673600
     26 F           -2.3870    -3.5160     0.2330 f          1 Q3Y      -0.153000
     27 C3           1.0650    -2.4550    -0.0050 ca         1 Q3Y      -0.038000
     28 C1           0.9830    -4.8120     0.1040 ca         1 Q3Y      -0.059000
     29 CL           2.4710     0.5450     2.6940 cl         1 Q3Y      -0.190000
     30 H1           2.8280    -3.7220     0.0020 ha         1 Q3Y       0.144000
     31 H2           3.6510     3.4910    -1.8750 ha         1 Q3Y       0.115000
     32 H3           2.9950     3.3190     2.3450 ha         1 Q3Y       0.130000
     33 H4           3.5190     4.6070     0.2950 ha         1 Q3Y       0.115000
     34 H5          -1.5530     1.6620    -0.5030 h1         1 Q3Y       0.038200
     35 H6          -1.1830     1.2290     1.1660 h1         1 Q3Y       0.038200
     36 H8           2.1940     0.9340    -4.3690 hc         1 Q3Y       0.073700
     37 H9           4.6820     0.5630    -4.1120 hc         1 Q3Y       0.073700
     38 H10          4.8310     2.1760    -3.2870 hc         1 Q3Y       0.073700
     39 H11          3.1010    -0.2220    -2.4090 hc         1 Q3Y       0.090700
     40 H12         -0.9870    -5.6850     0.2570 ha         1 Q3Y       0.129000
     41 H13         -4.5400    -0.9140     0.1600 hc         1 Q3Y       0.056700
     42 H14         -4.8670    -0.5370    -1.5260 hc         1 Q3Y       0.056700
     43 H15         -4.0100     1.7540    -1.2210 hc         1 Q3Y       0.041700
     44 H17         -3.5720     0.8930     1.6560 h1         1 Q3Y       0.059700
     45 H18         -2.7660     3.0300     1.8000 ho         1 Q3Y       0.413000
     46 H19         -2.7380    -1.7640    -1.2830 h1         1 Q3Y       0.027200
     47 H20         -2.4870    -0.1740    -1.9780 h1         1 Q3Y       0.027200
     48 H21          1.4760    -5.7750     0.1300 ha         1 Q3Y       0.111000
     49 C22         -5.7300     1.5570     0.0840 c          1 Q3Y       0.732000
     50 H7           2.3560     2.5460    -3.5420 hc         1 Q3Y       0.073700
     51 O2          -6.3750     2.2910    -0.6910 o          1 Q3Y      -0.730000
     52 O1          -6.1410     1.0730     1.1580 o          1 Q3Y      -0.730000
@<TRIPOS>BOND
     1     1     5 1   
     2     1    17 1   
     3     1    27 1   
     4     2    27 ar  
     5     2    28 ar  
     6     2    30 1   
     7     3     6 1   
     8     3     9 ar  
     9     3    27 ar  
    10     4     5 1   
    11     4     7 ar  
    12     4    10 ar  
    13     5    19 2   
    14     6    17 2   
    15     6    25 1   
    16     7     8 ar  
    17     7    16 1   
    18     8    12 ar  
    19     8    31 1   
    20     9    18 ar  
    21     9    26 1   
    22    10    11 ar  
    23    10    29 1   
    24    11    12 ar  
    25    11    32 1   
    26    12    33 1   
    27    13    22 1   
    28    13    25 1   
    29    13    34 1   
    30    13    35 1   
    31    14    15 1   
    32    14    16 1   
    33    14    36 1   
    34    14    50 1   
    35    15    16 1   
    36    15    37 1   
    37    15    38 1   
    38    16    39 1   
    39    18    28 ar  
    40    18    40 1   
    41    20    21 1   
    42    20    24 1   
    43    20    41 1   
    44    20    42 1   
    45    21    22 1   
    46    21    43 1   
    47    21    49 1   
    48    22    23 1   
    49    22    44 1   
    50    23    45 1   
    51    24    25 1   
    52    24    46 1   
    53    24    47 1   
    54    28    48 1   
    55    49    51 1   
    56    49    52 1   
@<TRIPOS>SUBSTRUCTURE
     1 Q3Y         1 TEMP              0 ****  ****    0 ROOT
