@<TRIPOS>MOLECULE
Q40
   37    38     1     0     0
SMALL
abcg2


@<TRIPOS>ATOM
      1 N1         -17.1710   -27.9550    38.2550 n3         1 Q40      -0.735600
      2 C4         -18.4970   -27.3620    38.3480 c3         1 Q40       0.177800
      3 C5         -18.6110   -25.8550    38.0170 c3         1 Q40      -0.071100
      4 C6         -20.0330   -25.3890    38.1510 ca         1 Q40      -0.078300
      5 C7         -20.9170   -25.4680    37.0710 ca         1 Q40      -0.108500
      6 C8         -22.2500   -25.0940    37.2080 ca         1 Q40      -0.108000
      7 C10        -21.8540   -24.5480    39.5160 ca         1 Q40      -0.108000
      8 C13        -15.3700   -28.8390    36.8420 c6         1 Q40      -0.066900
      9 N          -11.9710   -28.7310    37.3890 nt         1 Q40      -0.611000
     10 C          -13.1140   -29.2740    37.8480 c          1 Q40       0.599100
     11 O          -13.1780   -30.4450    38.2250 o          1 Q40      -0.607100
     12 C1         -14.3250   -28.3580    37.8590 c6         1 Q40      -0.140700
     13 C11        -20.5220   -24.9240    39.3740 ca         1 Q40      -0.108500
     14 C12        -16.6170   -27.9650    36.9060 c6         1 Q40       0.175800
     15 C2         -14.9550   -28.2890    39.2560 c6         1 Q40      -0.066900
     16 C3         -16.2200   -27.4390    39.2320 c6         1 Q40       0.175800
     17 C9         -22.7240   -24.6340    38.4330 ca         1 Q40      -0.111000
     18 H8         -19.1600   -27.9140    37.6740 h1         1 Q40       0.055700
     19 H7         -18.8650   -27.5210    39.3650 h1         1 Q40       0.055700
     20 H9         -17.9690   -25.2860    38.6910 hc         1 Q40       0.047700
     21 H10        -18.2600   -25.6800    36.9980 hc         1 Q40       0.047700
     22 H11        -20.5530   -25.8240    36.1140 ha         1 Q40       0.109500
     23 H12        -22.9170   -25.1600    36.3580 ha         1 Q40       0.112000
     24 H14        -22.2120   -24.1860    40.4720 ha         1 Q40       0.112000
     25 H18        -15.6390   -29.8740    37.0660 hc         1 Q40       0.059700
     26 H19        -14.9540   -28.8110    35.8320 hc         1 Q40       0.059700
     27 H1         -11.1340   -29.2920    37.3420 hn         1 Q40       0.313500
     28 H          -11.9240   -27.7720    37.0890 hn         1 Q40       0.313500
     29 H2         -14.0100   -27.3500    37.5730 hc         1 Q40       0.041700
     30 H15        -19.8490   -24.8530    40.2210 ha         1 Q40       0.109500
     31 H16        -17.3800   -28.3510    36.2250 h1         1 Q40       0.030200
     32 H17        -16.3580   -26.9500    36.5600 h1         1 Q40       0.030200
     33 H3         -15.2000   -29.2990    39.5880 hc         1 Q40       0.059700
     34 H4         -14.2430   -27.8660    39.9690 hc         1 Q40       0.059700
     35 H5         -16.6970   -27.4530    40.2150 h1         1 Q40       0.030200
     36 H6         -15.9420   -26.3920    39.0200 h1         1 Q40       0.030200
     37 H13        -23.7610   -24.3410    38.5410 ha         1 Q40       0.112000
@<TRIPOS>BOND
     1     1     2 1   
     2     1    14 1   
     3     1    16 1   
     4     2     3 1   
     5     2    18 1   
     6     2    19 1   
     7     3     4 1   
     8     3    20 1   
     9     3    21 1   
    10     4     5 ar  
    11     4    13 ar  
    12     5     6 ar  
    13     5    22 1   
    14     6    17 ar  
    15     6    23 1   
    16     7    13 ar  
    17     7    17 ar  
    18     7    24 1   
    19     8    12 1   
    20     8    14 1   
    21     8    25 1   
    22     8    26 1   
    23     9    10 1   
    24     9    27 1   
    25     9    28 1   
    26    10    11 2   
    27    10    12 1   
    28    12    15 1   
    29    12    29 1   
    30    13    30 1   
    31    14    31 1   
    32    14    32 1   
    33    15    16 1   
    34    15    33 1   
    35    15    34 1   
    36    16    35 1   
    37    16    36 1   
    38    17    37 1   
@<TRIPOS>SUBSTRUCTURE
     1 Q40         1 TEMP              0 ****  ****    0 ROOT
