@<TRIPOS>MOLECULE
Q40
   37    38     1     0     0
SMALL
No Charge or Current Charge


@<TRIPOS>ATOM
      1 N1         -17.2100   -28.0580    38.2780 n3         1 Q40      -0.735600
      2 C4         -18.5640   -27.4460    38.3760 c3         1 Q40       0.177800
      3 C5         -18.6560   -25.9390    38.0310 c3         1 Q40      -0.071100
      4 C6         -20.0800   -25.4170    38.1630 ca         1 Q40      -0.078300
      5 C7         -20.9560   -25.4560    37.0600 ca         1 Q40      -0.108500
      6 C8         -22.2730   -24.9790    37.1840 ca         1 Q40      -0.108000
      7 C10        -21.8530   -24.4230    39.5140 ca         1 Q40      -0.108000
      8 C13        -15.3620   -28.9240    36.8080 c6         1 Q40      -0.066900
      9 N          -11.8890   -28.5500    37.4310 nt         1 Q40      -0.611000
     10 C          -12.9940   -29.2350    37.7980 c          1 Q40       0.599100
     11 O          -12.9170   -30.4210    38.0710 o          1 Q40      -0.607100
     12 C1         -14.3170   -28.4450    37.8480 c6         1 Q40      -0.140700
     13 C11        -20.5360   -24.8990    39.3910 ca         1 Q40      -0.108500
     14 C12        -16.6580   -28.0800    36.8920 c6         1 Q40       0.175800
     15 C2         -14.9160   -28.3320    39.2730 c6         1 Q40      -0.066900
     16 C3         -16.2300   -27.5110    39.2610 c6         1 Q40       0.175800
     17 C9         -22.7220   -24.4620    38.4110 ca         1 Q40      -0.111000
     18 H8         -19.2530   -27.9870    37.7130 h1         1 Q40       0.055700
     19 H7         -18.9490   -27.5830    39.3960 h1         1 Q40       0.055700
     20 H9         -17.9920   -25.3680    38.6900 hc         1 Q40       0.047700
     21 H10        -18.2950   -25.7720    37.0100 hc         1 Q40       0.047700
     22 H11        -20.6170   -25.8570    36.1070 ha         1 Q40       0.109500
     23 H12        -22.9450   -25.0120    36.3290 ha         1 Q40       0.112000
     24 H14        -22.2000   -24.0240    40.4650 ha         1 Q40       0.112000
     25 H18        -15.6070   -29.9800    36.9860 hc         1 Q40       0.059700
     26 H19        -14.9460   -28.8640    35.7930 hc         1 Q40       0.059700
     27 H1         -11.0030   -29.0300    37.3850 hn         1 Q40       0.313500
     28 H          -11.9540   -27.5680    37.2050 hn         1 Q40       0.313500
     29 H2         -14.0570   -27.4180    37.5540 hc         1 Q40       0.041700
     30 H15        -19.8710   -24.8670    40.2510 ha         1 Q40       0.109500
     31 H16        -17.3970   -28.4990    36.1930 h1         1 Q40       0.030200
     32 H17        -16.4340   -27.0580    36.5530 h1         1 Q40       0.030200
     33 H3         -15.1210   -29.3350    39.6710 hc         1 Q40       0.059700
     34 H4         -14.1930   -27.8650    39.9560 hc         1 Q40       0.059700
     35 H5         -16.6590   -27.5190    40.2730 h1         1 Q40       0.030200
     36 H6         -15.9880   -26.4660    39.0200 h1         1 Q40       0.030200
     37 H13        -23.7410   -24.0940    38.5060 ha         1 Q40       0.112000
@<TRIPOS>BOND
     1     1     2 1   
     2     1    14 1   
     3     1    16 1   
     4     2     3 1   
     5     2    18 1   
     6     2    19 1   
     7     3     4 1   
     8     3    20 1   
     9     3    21 1   
    10     4     5 ar  
    11     4    13 ar  
    12     5     6 ar  
    13     5    22 1   
    14     6    17 ar  
    15     6    23 1   
    16     7    13 ar  
    17     7    17 ar  
    18     7    24 1   
    19     8    12 1   
    20     8    14 1   
    21     8    25 1   
    22     8    26 1   
    23     9    10 1   
    24     9    27 1   
    25     9    28 1   
    26    10    11 2   
    27    10    12 1   
    28    12    15 1   
    29    12    29 1   
    30    13    30 1   
    31    14    31 1   
    32    14    32 1   
    33    15    16 1   
    34    15    33 1   
    35    15    34 1   
    36    16    35 1   
    37    16    36 1   
    38    17    37 1   
@<TRIPOS>SUBSTRUCTURE
     1 Q40         1 TEMP              0 ****  ****    0 ROOT
