@<TRIPOS>MOLECULE
Q42
   26    27     1     0     0
SMALL
abcg2


@<TRIPOS>ATOM
      1 NBC          0.4760    -1.1210    -0.7280 n7         1 Q42      -0.842400
      2 CBB         -0.8680    -0.5640    -0.6380 c5         1 Q42       0.157500
      3 CAP         -1.9320    -1.4520    -0.0250 c6         1 Q42      -0.073400
      4 CAM         -3.2550    -0.6790     0.0120 c6         1 Q42      -0.070400
      5 CAL         -3.1310     0.6840     0.6990 c6         1 Q42      -0.072400
      6 CAO         -2.0030     1.5400     0.1150 c6         1 Q42      -0.056400
      7 CAZ         -0.7170     0.7360     0.1430 c5         1 Q42      -0.111700
      8 CAR          0.5520     1.2910    -0.4800 c5         1 Q42      -0.065400
      9 CBA          1.4110     0.0120    -0.6800 c5         1 Q42       0.009500
     10 CAU          2.4610    -0.1330     0.4440 c          1 Q42       0.706000
     11 OAF          2.3240    -1.0780     1.2480 o          1 Q42      -0.732000
     12 OAC          3.3640     0.7260     0.4540 o          1 Q42      -0.732000
     13 HBB         -1.2040    -0.2990    -1.6540 h1         1 Q42       0.034700
     14 HBA          1.9630     0.0930    -1.6240 h1         1 Q42       0.052700
     15 HAP1        -2.0530    -2.3800    -0.5910 hc         1 Q42       0.040200
     16 HAP2        -1.6310    -1.7320     0.9910 hc         1 Q42       0.040200
     17 HAZ         -0.5040     0.4690     1.1890 hc         1 Q42       0.062700
     18 HAM1        -3.6050    -0.5310    -1.0160 hc         1 Q42       0.022700
     19 HAM2        -4.0210    -1.2750     0.5130 hc         1 Q42       0.022700
     20 HAL1        -4.0840     1.2150     0.6320 hc         1 Q42       0.025200
     21 HAL2        -2.9400     0.5310     1.7670 hc         1 Q42       0.025200
     22 HAO1        -2.2420     1.8180    -0.9180 hc         1 Q42       0.028200
     23 HAO2        -1.9080     2.4720     0.6780 hc         1 Q42       0.028200
     24 HAR1         0.3190     1.7540    -1.4440 hc         1 Q42       0.034200
     25 HAR2         1.0580     2.0420     0.1270 hc         1 Q42       0.034200
     26 H2           0.6620    -1.6660     0.1100 hn         1 Q42       0.431000
@<TRIPOS>BOND
     1     1     2 1   
     2     1     9 1   
     3     1    26 1   
     4     2     3 1   
     5     2     7 1   
     6     2    13 1   
     7     3     4 1   
     8     3    15 1   
     9     3    16 1   
    10     4     5 1   
    11     4    18 1   
    12     4    19 1   
    13     5     6 1   
    14     5    20 1   
    15     5    21 1   
    16     6     7 1   
    17     6    22 1   
    18     6    23 1   
    19     7     8 1   
    20     7    17 1   
    21     8     9 1   
    22     8    24 1   
    23     8    25 1   
    24     9    10 1   
    25     9    14 1   
    26    10    11 1   
    27    10    12 1   
@<TRIPOS>SUBSTRUCTURE
     1 Q42         1 TEMP              0 ****  ****    0 ROOT
