@<TRIPOS>MOLECULE
Q42
   26    27     1     0     0
SMALL
No Charge or Current Charge


@<TRIPOS>ATOM
      1 NBC          0.4740    -1.1910    -0.5520 n7         1 Q42      -0.842400
      2 CBB         -0.8640    -0.5850    -0.6570 c5         1 Q42       0.157500
      3 CAP         -1.9970    -1.4870    -0.1170 c6         1 Q42      -0.073400
      4 CAM         -3.3250    -0.6760    -0.0770 c6         1 Q42      -0.070400
      5 CAL         -3.1810     0.6550     0.7230 c6         1 Q42      -0.072400
      6 CAO         -2.0030     1.5280     0.2050 c6         1 Q42      -0.056400
      7 CAZ         -0.7070     0.6860     0.1920 c5         1 Q42      -0.111700
      8 CAR          0.5530     1.2770    -0.4800 c5         1 Q42      -0.065400
      9 CBA          1.4290    -0.0140    -0.6710 c5         1 Q42       0.009500
     10 CAU          2.6140     0.0040     0.3840 c          1 Q42       0.706000
     11 OAF          2.4690    -0.5780     1.4540 o          1 Q42      -0.732000
     12 OAC          3.6830     0.5080     0.0680 o          1 Q42      -0.732000
     13 HBB         -1.0890    -0.3310    -1.7040 h1         1 Q42       0.034700
     14 HBA          1.8870     0.0010    -1.6700 h1         1 Q42       0.052700
     15 HAP1        -2.1130    -2.3730    -0.7540 hc         1 Q42       0.040200
     16 HAP2        -1.7510    -1.8450     0.8920 hc         1 Q42       0.040200
     17 HAZ         -0.5030     0.4400     1.2420 hc         1 Q42       0.062700
     18 HAM1        -3.6440    -0.4500    -1.1030 hc         1 Q42       0.022700
     19 HAM2        -4.1210    -1.2910     0.3660 hc         1 Q42       0.022700
     20 HAL1        -4.1180     1.2250     0.6650 hc         1 Q42       0.025200
     21 HAL2        -3.0260     0.4250     1.7860 hc         1 Q42       0.025200
     22 HAO1        -2.2260     1.8900    -0.8080 hc         1 Q42       0.028200
     23 HAO2        -1.8760     2.4140     0.8410 hc         1 Q42       0.028200
     24 HAR1         0.3130     1.7360    -1.4470 hc         1 Q42       0.034200
     25 HAR2         1.0380     2.0460     0.1340 hc         1 Q42       0.034200
     26 H2           0.5760    -1.5440     0.4100 hn         1 Q42       0.431000
@<TRIPOS>BOND
     1     1     2 1   
     2     1     9 1   
     3     1    26 1   
     4     2     3 1   
     5     2     7 1   
     6     2    13 1   
     7     3     4 1   
     8     3    15 1   
     9     3    16 1   
    10     4     5 1   
    11     4    18 1   
    12     4    19 1   
    13     5     6 1   
    14     5    20 1   
    15     5    21 1   
    16     6     7 1   
    17     6    22 1   
    18     6    23 1   
    19     7     8 1   
    20     7    17 1   
    21     8     9 1   
    22     8    24 1   
    23     8    25 1   
    24     9    10 1   
    25     9    14 1   
    26    10    11 1   
    27    10    12 1   
@<TRIPOS>SUBSTRUCTURE
     1 Q42         1 TEMP              0 ****  ****    0 ROOT
