@<TRIPOS>MOLECULE
Q44
   21    22     1     0     0
SMALL
No Charge or Current Charge


@<TRIPOS>ATOM
      1 C02         12.1310     9.8960     7.6520 c          1 Q44       0.657000
      2 C03         11.5950    10.8220     6.6390 cc         1 Q44       0.125500
      3 C04         11.1960    12.0170     7.0680 cd         1 Q44       0.195000
      4 C06         10.8710    11.9350     4.9310 cd         1 Q44       0.392400
      5 C09         11.7520    11.5800     9.3580 cc         1 Q44       0.749800
      6 C11         12.2360    11.3740    11.7660 c          1 Q44       0.616100
      7 C12         12.1220    12.2050    13.0390 c3         1 Q44      -0.186100
      8 N05         10.7290    12.7670     6.0440 na         1 Q44      -0.326500
      9 N07         11.3970    10.7450     5.2740 nc         1 Q44      -0.581000
     10 N08         11.2560    12.4230     8.3820 na         1 Q44      -0.927200
     11 N10         11.7920    12.0230    10.6400 ns         1 Q44      -0.453400
     12 N14         12.1600    10.3830     8.9760 nd         1 Q44      -0.716100
     13 O01         12.5370     8.7650     7.4170 o          1 Q44      -0.502100
     14 O13         12.6870    10.2390    11.7870 o          1 Q44      -0.480100
     15 H1          10.5800    12.2500     3.9360 h5         1 Q44       0.064100
     16 H2          12.4810    11.6690    13.9250 hc         1 Q44       0.067367
     17 H3          12.6530    13.1530    12.8980 hc         1 Q44       0.067367
     18 H4          11.0830    12.5340    13.1600 hc         1 Q44       0.067367
     19 H5          10.3610    13.7070     6.0650 hn         1 Q44       0.358000
     20 H7          10.9360    13.3470     8.6500 hn         1 Q44       0.500000
     21 H8          11.4510    12.9560    10.8010 hn         1 Q44       0.312500
@<TRIPOS>BOND
     1     1     2 1   
     2     1    12 1   
     3     1    13 2   
     4     2     3 2   
     5     2     9 1   
     6     3     8 1   
     7     3    10 1   
     8     4     8 1   
     9     4     9 2   
    10     4    15 1   
    11     5    10 1   
    12     5    11 1   
    13     5    12 2   
    14     6     7 1   
    15     6    11 1   
    16     6    14 2   
    17     7    16 1   
    18     7    17 1   
    19     7    18 1   
    20     8    19 1   
    21    10    20 1   
    22    11    21 1   
@<TRIPOS>SUBSTRUCTURE
     1 Q44         1 TEMP              0 ****  ****    0 ROOT
