@<TRIPOS>MOLECULE
Q44
   21    22     1     0     0
SMALL
bcc


@<TRIPOS>ATOM
      1 C02         12.0540     9.8950     7.6840 c          1 Q44       0.657000
      2 C03         11.5670    10.8430     6.7140 cc         1 Q44       0.190800
      3 C04         11.1930    12.0950     7.1330 cd         1 Q44       0.042000
      4 C06         10.9230    11.8970     4.9910 cd         1 Q44       0.392400
      5 C09         11.7290    11.5600     9.3100 cc         1 Q44       0.749800
      6 C11         12.2900    11.3840    11.7240 c          1 Q44       0.683100
      7 C12         12.1040    12.2010    12.9740 c3         1 Q44      -0.186100
      8 N05         10.7840    12.7650     6.0400 na         1 Q44      -0.326900
      9 N07         11.3870    10.7410     5.3580 nc         1 Q44      -0.581000
     10 N08         11.2630    12.4900     8.4270 na         1 Q44      -0.733600
     11 N10         11.7720    12.0160    10.6060 ns         1 Q44      -0.520400
     12 N14         12.0940    10.3670     8.9870 nd         1 Q44      -0.716100
     13 O01         12.4100     8.7550     7.4240 o          1 Q44      -0.502100
     14 O13         12.8200    10.3010    11.7020 o          1 Q44      -0.480100
     15 H1          10.6620    12.1910     3.9870 h5         1 Q44       0.064100
     16 H2          12.6460    11.7500    13.8000 hc         1 Q44       0.067367
     17 H3          12.4500    13.2260    12.8380 hc         1 Q44       0.067367
     18 H4          11.0440    12.2470    13.2350 hc         1 Q44       0.067367
     19 H5          10.4390    13.7130     5.9900 hn         1 Q44       0.307700
     20 H7          10.9880    13.4200     8.7120 hn         1 Q44       0.444800
     21 H8          11.3860    12.9340    10.7710 hn         1 Q44       0.312500
@<TRIPOS>BOND
     1     1     2 1   
     2     1    12 1   
     3     1    13 2   
     4     2     3 2   
     5     2     9 1   
     6     3     8 1   
     7     3    10 1   
     8     4     8 1   
     9     4     9 2   
    10     4    15 1   
    11     5    10 1   
    12     5    11 1   
    13     5    12 2   
    14     6     7 1   
    15     6    11 1   
    16     6    14 2   
    17     7    16 1   
    18     7    17 1   
    19     7    18 1   
    20     8    19 1   
    21    10    20 1   
    22    11    21 1   
@<TRIPOS>SUBSTRUCTURE
     1 Q44         1 TEMP              0 ****  ****    0 ROOT
