@<TRIPOS>MOLECULE
Q45
   47    48     1     0     0
SMALL
abcg2


@<TRIPOS>ATOM
      1 N1          10.3610     0.0710    22.8530 n3         1 Q45      -0.707600
      2 N3           6.2820     0.9800    17.5470 nb         1 Q45      -0.642000
      3 C4          12.3770    -0.0580    24.2610 c6         1 Q45      -0.074400
      4 C5          12.7870    -1.3710    23.6010 c6         1 Q45      -0.076400
      5 C6          12.2180    -1.4340    22.1880 c6         1 Q45      -0.075400
      6 C7          10.7160    -1.2040    22.2190 c6         1 Q45       0.166800
      7 C8           8.9310     0.2810    22.7440 c3         1 Q45       0.091800
      8 C10          6.5530     0.1920    19.7980 ca         1 Q45      -0.077000
      9 C13          5.0590     0.4470    17.5220 ca         1 Q45       0.309900
     10 O2           9.1720     1.2710    20.5530 o          1 Q45      -0.557100
     11 C9           8.5050     0.5760    21.3070 c          1 Q45       0.596100
     12 N2           7.2970     0.0390    20.9770 ns         1 Q45      -0.150000
     13 C14          7.0160     0.8570    18.6560 ca         1 Q45       0.319900
     14 C12          4.5170    -0.2340    18.6050 ca         1 Q45      -0.135000
     15 C11          5.2720    -0.3630    19.7560 ca         1 Q45      -0.132000
     16 C3          10.8590     0.1570    24.2380 c6         1 Q45       0.187500
     17 C2          10.4920     1.4820    24.9190 c3         1 Q45      -0.078400
     18 C1          10.8570     2.7260    24.1190 c3         1 Q45       0.203800
     19 N           10.4770     3.9190    24.8980 n7         1 Q45      -0.883300
     20 S           10.8990     5.4070    24.3630 s6         1 Q45       1.218100
     21 O           10.3840     6.3500    25.3320 o          1 Q45      -0.538000
     22 O1          12.3210     5.3820    24.0960 o          1 Q45      -0.538000
     23 C           10.0610     5.6870    22.8220 c3         1 Q45      -0.392100
     24 H2          12.7100    -0.0300    25.3000 hc         1 Q45       0.053700
     25 H3          12.8630     0.7710    23.7400 hc         1 Q45       0.053700
     26 H4          12.3980    -2.2110    24.1860 hc         1 Q45       0.043200
     27 H5          13.8750    -1.4660    23.5890 hc         1 Q45       0.043200
     28 H6          12.4220    -2.4020    21.7250 hc         1 Q45       0.054700
     29 H7          12.6870    -0.6670    21.5640 hc         1 Q45       0.054700
     30 H8          10.3180    -1.1990    21.2030 h1         1 Q45       0.033700
     31 H9          10.2290    -2.0410    22.7530 h1         1 Q45       0.033700
     32 H10          8.6300     1.1590    23.3160 h1         1 Q45       0.045700
     33 H11          8.3560    -0.5700    23.1440 h1         1 Q45       0.045700
     34 H12          4.4930     0.5670    16.6050 h4         1 Q45       0.024100
     35 H13          6.8550    -0.5240    21.6890 hn         1 Q45       0.148000
     36 H14          8.0010     1.2950    18.6460 h4         1 Q45       0.054100
     37 H15          3.5210    -0.6550    18.5470 ha         1 Q45       0.125000
     38 H16          4.8820    -0.8880    20.6210 ha         1 Q45       0.114000
     39 H17         10.4010    -0.6480    24.8410 h1         1 Q45       0.023700
     40 H18         11.0100     1.5120    25.8800 hc         1 Q45       0.049700
     41 H19          9.4240     1.5100    25.1500 hc         1 Q45       0.049700
     42 H20         11.9290     2.7780    23.9420 h1         1 Q45       0.067700
     43 H21         10.3580     2.7140    23.1470 h1         1 Q45       0.067700
     44 H22          9.5120     3.9130    25.2160 hn         1 Q45       0.471000
     45 H23          8.9890     5.6480    23.0010 h1         1 Q45       0.102700
     46 H24         10.3590     6.6730    22.4680 h1         1 Q45       0.102700
     47 H25         10.3660     4.9220    22.1110 h1         1 Q45       0.102700
@<TRIPOS>BOND
     1     1     6 1   
     2     1     7 1   
     3     1    16 1   
     4     2     9 ar  
     5     2    13 ar  
     6     3     4 1   
     7     3    16 1   
     8     3    24 1   
     9     3    25 1   
    10     4     5 1   
    11     4    26 1   
    12     4    27 1   
    13     5     6 1   
    14     5    28 1   
    15     5    29 1   
    16     6    30 1   
    17     6    31 1   
    18     7    11 1   
    19     7    32 1   
    20     7    33 1   
    21     8    12 1   
    22     8    13 ar  
    23     8    15 ar  
    24     9    14 ar  
    25     9    34 1   
    26    10    11 2   
    27    11    12 1   
    28    12    35 1   
    29    13    36 1   
    30    14    15 ar  
    31    14    37 1   
    32    15    38 1   
    33    16    17 1   
    34    16    39 1   
    35    17    18 1   
    36    17    40 1   
    37    17    41 1   
    38    18    19 1   
    39    18    42 1   
    40    18    43 1   
    41    19    20 1   
    42    19    44 1   
    43    20    21 2   
    44    20    22 2   
    45    20    23 1   
    46    23    45 1   
    47    23    46 1   
    48    23    47 1   
@<TRIPOS>SUBSTRUCTURE
     1 Q45         1 TEMP              0 ****  ****    0 ROOT
