@<TRIPOS>MOLECULE
Q45
   47    48     1     0     0
SMALL
No Charge or Current Charge


@<TRIPOS>ATOM
      1 N1          10.1300     0.4160    22.7830 n3         1 Q45      -0.707600
      2 N3           5.8620     0.6820    17.4100 nb         1 Q45      -0.642000
      3 C4          12.1300    -0.2010    24.1990 c6         1 Q45      -0.074400
      4 C5          12.2840    -1.5350    23.4410 c6         1 Q45      -0.076400
      5 C6          11.7370    -1.3770    22.0100 c6         1 Q45      -0.075400
      6 C7          10.2780    -0.8730    22.0380 c6         1 Q45       0.166800
      7 C8           8.7180     0.9370    22.6970 c3         1 Q45       0.091800
      8 C10          6.5400    -0.0370    19.6430 ca         1 Q45      -0.077000
      9 C13          5.1060    -0.4350    17.3100 ca         1 Q45       0.309900
     10 O2           8.3640     2.1690    20.6170 o          1 Q45      -0.557100
     11 C9           8.1120     1.1680    21.2820 c          1 Q45       0.596100
     12 N2           7.2710     0.1470    20.8510 ns         1 Q45      -0.150000
     13 C14          6.5630     0.8750    18.5550 ca         1 Q45       0.319900
     14 C12          5.0230    -1.3930    18.3350 ca         1 Q45      -0.135000
     15 C11          5.7490    -1.1950    19.5210 ca         1 Q45      -0.132000
     16 C3          10.6560     0.3060    24.1880 c6         1 Q45       0.187500
     17 C2          10.5440     1.6290    25.0130 c3         1 Q45      -0.078400
     18 C1          11.1940     2.8690    24.3630 c3         1 Q45       0.203800
     19 N           10.9920     4.0480    25.2260 n7         1 Q45      -0.883300
     20 S           11.5770     5.5230    24.7200 s6         1 Q45       1.218100
     21 O           11.2880     6.4630    25.8040 o          1 Q45      -0.538000
     22 O1          12.9550     5.3010    24.2800 o          1 Q45      -0.538000
     23 C           10.5480     5.8880    23.3120 c3         1 Q45      -0.392100
     24 H2          12.4750    -0.3300    25.2340 hc         1 Q45       0.053700
     25 H3          12.7910     0.5450    23.7410 hc         1 Q45       0.053700
     26 H4          11.7380    -2.3310    23.9660 hc         1 Q45       0.043200
     27 H5          13.3400    -1.8370    23.4130 hc         1 Q45       0.043200
     28 H6          11.7900    -2.3360    21.4780 hc         1 Q45       0.054700
     29 H7          12.3600    -0.6690    21.4460 hc         1 Q45       0.054700
     30 H8           9.9450    -0.7580    20.9970 h1         1 Q45       0.033700
     31 H9           9.6440    -1.6470    22.4950 h1         1 Q45       0.033700
     32 H10          8.6400     1.9110    23.1930 h1         1 Q45       0.045700
     33 H11          8.0440     0.2590    23.2360 h1         1 Q45       0.045700
     34 H12          4.5520    -0.5660    16.3810 h4         1 Q45       0.024100
     35 H13          7.1620    -0.6090    21.5160 hn         1 Q45       0.148000
     36 H14          7.1550     1.7870    18.5810 h4         1 Q45       0.054100
     37 H15          4.4010    -2.2740    18.2040 ha         1 Q45       0.125000
     38 H16          5.6970    -1.9260    20.3250 ha         1 Q45       0.114000
     39 H17         10.0550    -0.4430    24.7260 h1         1 Q45       0.023700
     40 H18         11.0030     1.4780    25.9980 hc         1 Q45       0.049700
     41 H19          9.4900     1.8460    25.2230 hc         1 Q45       0.049700
     42 H20         12.2670     2.6800    24.2220 h1         1 Q45       0.067700
     43 H21         10.7550     3.0230    23.3670 h1         1 Q45       0.067700
     44 H22          9.9960     4.2470    25.2800 hn         1 Q45       0.471000
     45 H23          9.5050     5.8950    23.6430 h1         1 Q45       0.102700
     46 H24         10.8470     6.8760    22.9450 h1         1 Q45       0.102700
     47 H25         10.7260     5.1230    22.5500 h1         1 Q45       0.102700
@<TRIPOS>BOND
     1     1     6 1   
     2     1     7 1   
     3     1    16 1   
     4     2     9 ar  
     5     2    13 ar  
     6     3     4 1   
     7     3    16 1   
     8     3    24 1   
     9     3    25 1   
    10     4     5 1   
    11     4    26 1   
    12     4    27 1   
    13     5     6 1   
    14     5    28 1   
    15     5    29 1   
    16     6    30 1   
    17     6    31 1   
    18     7    11 1   
    19     7    32 1   
    20     7    33 1   
    21     8    12 1   
    22     8    13 ar  
    23     8    15 ar  
    24     9    14 ar  
    25     9    34 1   
    26    10    11 2   
    27    11    12 1   
    28    12    35 1   
    29    13    36 1   
    30    14    15 ar  
    31    14    37 1   
    32    15    38 1   
    33    16    17 1   
    34    16    39 1   
    35    17    18 1   
    36    17    40 1   
    37    17    41 1   
    38    18    19 1   
    39    18    42 1   
    40    18    43 1   
    41    19    20 1   
    42    19    44 1   
    43    20    21 2   
    44    20    22 2   
    45    20    23 1   
    46    23    45 1   
    47    23    46 1   
    48    23    47 1   
@<TRIPOS>SUBSTRUCTURE
     1 Q45         1 TEMP              0 ****  ****    0 ROOT
