@<TRIPOS>MOLECULE
Q47
   42    44     1     0     0
SMALL
No Charge or Current Charge


@<TRIPOS>ATOM
      1 C02         -6.8660    18.5090   269.3040 ca         1 Q47       0.178100
      2 C03         -6.9770    17.3190   268.5700 ca         1 Q47      -0.156000
      3 C04         -6.6520    17.2990   267.2030 ca         1 Q47      -0.052000
      4 C05         -6.2090    18.4740   266.5620 ca         1 Q47      -0.132300
      5 C06         -5.8550    18.4510   265.0780 c3         1 Q47      -0.034100
      6 C07         -7.0020    18.9170   264.1330 c6         1 Q47       0.038700
      7 C08         -8.1880    17.9070   264.1910 c          1 Q47       0.569000
      8 C10         -9.6370    19.6830   265.2930 c6         1 Q47       0.043700
      9 C11         -9.8740    19.4680   266.8150 c3         1 Q47      -0.037100
     10 C12        -10.9950    18.4790   267.1160 ca         1 Q47      -0.131300
     11 C13        -12.3400    18.8870   267.0240 ca         1 Q47      -0.068000
     12 C14        -13.3760    17.9760   267.2950 ca         1 Q47      -0.173500
     13 C15        -13.0720    16.6540   267.6560 ca         1 Q47       0.141100
     14 C17        -11.7350    16.2420   267.7470 ca         1 Q47      -0.173500
     15 C18        -10.6960    17.1500   267.4780 ca         1 Q47      -0.068000
     16 C19         -8.5110    20.7370   265.0730 c          1 Q47       0.565000
     17 C23         -6.0890    19.6650   267.3060 ca         1 Q47      -0.034000
     18 C24         -6.4230    19.6850   268.6710 ca         1 Q47      -0.122900
     19 N09         -9.4070    18.3850   264.6100 ns         1 Q47      -0.495900
     20 N20         -7.3820    20.3280   264.4020 ns         1 Q47      -0.499900
     21 O01         -7.1920    18.5150   270.6280 oh         1 Q47      -0.523100
     22 O16        -14.0700    15.7650   267.9190 oh         1 Q47      -0.533100
     23 O21         -8.6300    21.9030   265.4150 o          1 Q47      -0.558000
     24 O22         -8.0790    16.7470   263.8250 o          1 Q47      -0.561000
     25 Br1         -6.2720    21.3310   269.6430 br         1 Q47      -0.096100
     26 H1          -7.3180    16.4110   269.0610 ha         1 Q47       0.135000
     27 H2          -6.7460    16.3710   266.6420 ha         1 Q47       0.132000
     28 H3          -5.5340    17.4420   264.7890 hc         1 Q47       0.066200
     29 H4          -4.9750    19.0840   264.9080 hc         1 Q47       0.066200
     30 H5          -6.6320    18.8690   263.0990 h1         1 Q47       0.080700
     31 H6         -10.5460    20.1260   264.8620 h1         1 Q47       0.080700
     32 H7          -8.9460    19.1270   267.2840 hc         1 Q47       0.071200
     33 H8         -10.1020    20.4300   267.2910 hc         1 Q47       0.071200
     34 H9         -12.5830    19.9100   266.7440 ha         1 Q47       0.117500
     35 H10        -14.4100    18.3040   267.2210 ha         1 Q47       0.123500
     36 H11        -11.5000    15.2180   268.0250 ha         1 Q47       0.123500
     37 H12         -9.6630    16.8200   267.5460 ha         1 Q47       0.117500
     38 H13         -5.7440    20.5770   266.8230 ha         1 Q47       0.130000
     39 H14        -10.1640    17.7110   264.6040 hn         1 Q47       0.330500
     40 H15         -6.7000    21.0540   264.2140 hn         1 Q47       0.322500
     41 H16         -7.0450    19.4260   270.9640 ho         1 Q47       0.482000
     42 H17        -14.9310    16.2230   267.8080 ho         1 Q47       0.464000
@<TRIPOS>BOND
     1     1     2 ar  
     2     1    18 ar  
     3     1    21 1   
     4     2     3 ar  
     5     2    26 1   
     6     3     4 ar  
     7     3    27 1   
     8     4     5 1   
     9     4    17 ar  
    10     5     6 1   
    11     5    28 1   
    12     5    29 1   
    13     6     7 1   
    14     6    20 1   
    15     6    30 1   
    16     7    19 1   
    17     7    24 2   
    18     8     9 1   
    19     8    16 1   
    20     8    19 1   
    21     8    31 1   
    22     9    10 1   
    23     9    32 1   
    24     9    33 1   
    25    10    11 ar  
    26    10    15 ar  
    27    11    12 ar  
    28    11    34 1   
    29    12    13 ar  
    30    12    35 1   
    31    13    14 ar  
    32    13    22 1   
    33    14    15 ar  
    34    14    36 1   
    35    15    37 1   
    36    16    20 1   
    37    16    23 2   
    38    17    18 ar  
    39    17    38 1   
    40    18    25 1   
    41    19    39 1   
    42    20    40 1   
    43    21    41 1   
    44    22    42 1   
@<TRIPOS>SUBSTRUCTURE
     1 Q47         1 TEMP              0 ****  ****    0 ROOT
