@<TRIPOS>MOLECULE
Q47
   42    44     1     0     0
SMALL
bcc


@<TRIPOS>ATOM
      1 C02         -6.9380    18.3760   269.2540 ca         1 Q47       0.178100
      2 C03         -6.9430    17.2360   268.4510 ca         1 Q47      -0.174000
      3 C04         -6.5750    17.2990   267.1220 ca         1 Q47      -0.070000
      4 C05         -6.1840    18.5000   266.5330 ca         1 Q47      -0.132300
      5 C06         -5.8100    18.5620   265.0810 c3         1 Q47      -0.034100
      6 C07         -6.9900    18.9210   264.1600 c6         1 Q47       0.038700
      7 C08         -8.0890    17.8860   264.2700 c          1 Q47       0.711500
      8 C10         -9.6110    19.5910   265.2860 c6         1 Q47       0.043700
      9 C11         -9.8670    19.5380   266.8030 c3         1 Q47      -0.037100
     10 C12        -10.9720    18.5780   267.1420 ca         1 Q47      -0.131300
     11 C13        -12.3060    18.9590   267.0300 ca         1 Q47      -0.086000
     12 C14        -13.3350    18.0750   267.3070 ca         1 Q47      -0.191500
     13 C15        -13.0430    16.7750   267.7060 ca         1 Q47       0.141100
     14 C17        -11.7180    16.3730   267.8200 ca         1 Q47      -0.191500
     15 C18        -10.7010    17.2710   267.5380 ca         1 Q47      -0.086000
     16 C19         -8.5980    20.6610   264.9480 c          1 Q47       0.707500
     17 C23         -6.1690    19.6380   267.3290 ca         1 Q47      -0.052000
     18 C24         -6.5430    19.5770   268.6640 ca         1 Q47      -0.122900
     19 N09         -9.2660    18.2940   264.7570 ns         1 Q47      -0.562900
     20 N20         -7.4510    20.2700   264.3890 ns         1 Q47      -0.566900
     21 O01         -7.3020    18.2250   270.5330 oh         1 Q47      -0.484100
     22 O16        -14.0090    15.8710   267.9960 oh         1 Q47      -0.494100
     23 O21         -8.8600    21.8350   265.1760 o          1 Q47      -0.633500
     24 O22         -7.8740    16.7400   263.9140 o          1 Q47      -0.636500
     25 BR1         -6.5060    21.1570   269.7040 br         1 Q47      -0.096100
     26 H1          -7.2320    16.2910   268.8930 ha         1 Q47       0.153000
     27 H2          -6.5870    16.3890   266.5350 ha         1 Q47       0.150000
     28 H3          -5.4040    17.6060   264.7500 hc         1 Q47       0.066200
     29 H4          -5.0190    19.2980   264.9180 hc         1 Q47       0.066200
     30 H5          -6.6300    18.8660   263.1300 h1         1 Q47       0.080700
     31 H6         -10.5350    19.9130   264.7950 h1         1 Q47       0.080700
     32 H7          -8.9450    19.2460   267.3080 hc         1 Q47       0.071200
     33 H8         -10.1210    20.5420   267.1450 hc         1 Q47       0.071200
     34 H9         -12.5570    19.9680   266.7240 ha         1 Q47       0.135500
     35 H10        -14.3620    18.4080   267.2120 ha         1 Q47       0.141500
     36 H11        -11.4830    15.3640   268.1340 ha         1 Q47       0.141500
     37 H12         -9.6730    16.9450   267.6420 ha         1 Q47       0.135500
     38 H13         -5.8420    20.5810   266.9120 ha         1 Q47       0.148000
     39 H14         -9.9980    17.5980   264.7900 hn         1 Q47       0.330500
     40 H15         -6.8280    21.0060   264.0900 hn         1 Q47       0.322500
     41 H16         -7.3170    19.0590   271.0130 ho         1 Q47       0.443000
     42 H17        -14.8730    16.2880   267.9380 ho         1 Q47       0.425000
@<TRIPOS>BOND
     1     1     2 ar  
     2     1    18 ar  
     3     1    21 1   
     4     2     3 ar  
     5     2    26 1   
     6     3     4 ar  
     7     3    27 1   
     8     4     5 1   
     9     4    17 ar  
    10     5     6 1   
    11     5    28 1   
    12     5    29 1   
    13     6     7 1   
    14     6    20 1   
    15     6    30 1   
    16     7    19 1   
    17     7    24 2   
    18     8     9 1   
    19     8    16 1   
    20     8    19 1   
    21     8    31 1   
    22     9    10 1   
    23     9    32 1   
    24     9    33 1   
    25    10    11 ar  
    26    10    15 ar  
    27    11    12 ar  
    28    11    34 1   
    29    12    13 ar  
    30    12    35 1   
    31    13    14 ar  
    32    13    22 1   
    33    14    15 ar  
    34    14    36 1   
    35    15    37 1   
    36    16    20 1   
    37    16    23 2   
    38    17    18 ar  
    39    17    38 1   
    40    18    25 1   
    41    19    39 1   
    42    20    40 1   
    43    21    41 1   
    44    22    42 1   
@<TRIPOS>SUBSTRUCTURE
     1 Q47         1 TEMP              0 ****  ****    0 ROOT
