@<TRIPOS>MOLECULE
Q49
   27    28     1     0     0
SMALL
No Charge or Current Charge


@<TRIPOS>ATOM
      1 C4         -23.3360   -51.4260    12.4310 ca         1 Q49       0.165100
      2 C5         -23.9530   -52.6180    12.8450 ca         1 Q49      -0.153000
      3 C6         -24.2450   -52.8360    14.2030 ca         1 Q49      -0.051000
      4 C7         -23.9310   -51.8470    15.1500 ca         1 Q49      -0.183000
      5 C8         -23.3380   -50.6460    14.7340 ca         1 Q49       0.200000
      6 C10        -21.3990   -50.6840     9.3520 c          1 Q49       0.566000
      7 N          -20.1100   -51.1900     9.1640 n          1 Q49      -0.417800
      8 C          -19.4850   -51.1790     7.8290 c3         1 Q49       0.097300
      9 O          -23.0850   -51.2560    11.0830 os         1 Q49      -0.319100
     10 C1         -19.5070   -51.8150    10.3560 c5         1 Q49       0.101000
     11 C2         -20.7560   -52.0730    11.2490 c5         1 Q49      -0.121400
     12 C3         -21.6890   -50.8860    10.8550 c5         1 Q49       0.082300
     13 C9         -23.0440   -50.4250    13.3810 ca         1 Q49      -0.239000
     14 F          -23.0550   -49.6890    15.6440 f          1 Q49      -0.185000
     15 H8         -24.1970   -53.3810    12.1090 ha         1 Q49       0.137000
     16 H9         -24.7150   -53.7660    14.5180 ha         1 Q49       0.121000
     17 H10        -24.1550   -52.0050    16.2020 ha         1 Q49       0.135000
     18 H1         -20.0550   -51.8220     7.1460 h1         1 Q49       0.046367
     19 H          -19.4690   -50.1550     7.4330 h1         1 Q49       0.046367
     20 H2         -18.4540   -51.5510     7.8940 h1         1 Q49       0.046367
     21 H3         -18.9720   -52.7440    10.1150 h1         1 Q49       0.050200
     22 H4         -18.8040   -51.1220    10.8370 h1         1 Q49       0.050200
     23 H5         -21.2160   -53.0360    10.9970 hc         1 Q49       0.071200
     24 H6         -20.5100   -52.0910    12.3170 hc         1 Q49       0.071200
     25 H7         -21.4220   -49.9520    11.3620 h1         1 Q49       0.075700
     26 H11        -22.6120   -49.4750    13.0850 ha         1 Q49       0.132000
     27 O1         -22.1240   -50.2540     8.4630 o          1 Q49      -0.526000
@<TRIPOS>BOND
     1     1     2 ar  
     2     1     9 1   
     3     1    13 ar  
     4     2     3 ar  
     5     2    15 1   
     6     3     4 ar  
     7     3    16 1   
     8     4     5 ar  
     9     4    17 1   
    10     5    13 ar  
    11     5    14 1   
    12     6     7 1   
    13     6    12 1   
    14     6    27 2   
    15     7     8 1   
    16     7    10 1   
    17     8    18 1   
    18     8    19 1   
    19     8    20 1   
    20     9    12 1   
    21    10    11 1   
    22    10    21 1   
    23    10    22 1   
    24    11    12 1   
    25    11    23 1   
    26    11    24 1   
    27    12    25 1   
    28    13    26 1   
@<TRIPOS>SUBSTRUCTURE
     1 Q49         1 TEMP              0 ****  ****    0 ROOT
