@<TRIPOS>MOLECULE
Q49
   27    28     1     0     0
SMALL
abcg2


@<TRIPOS>ATOM
      1 C4         -23.1860   -51.8040    12.5620 ca         1 Q49       0.165100
      2 C5         -24.3420   -52.5470    12.8210 ca         1 Q49      -0.153000
      3 C6         -24.9180   -52.5130    14.0810 ca         1 Q49      -0.051000
      4 C7         -24.3610   -51.7500    15.1070 ca         1 Q49      -0.183000
      5 C8         -23.2200   -51.0330    14.8140 ca         1 Q49       0.200000
      6 C10        -21.4730   -51.1330     9.3940 c          1 Q49       0.566000
      7 N          -20.1760   -51.2600     9.0660 n          1 Q49      -0.417800
      8 C          -19.6660   -51.1660     7.7170 c3         1 Q49       0.097300
      9 O          -22.6890   -51.9030    11.2990 os         1 Q49      -0.319100
     10 C1         -19.2770   -51.3340    10.2130 c5         1 Q49       0.101000
     11 C2         -20.2120   -51.6650    11.3830 c5         1 Q49      -0.121400
     12 C3         -21.5640   -51.1200    10.9250 c5         1 Q49       0.082300
     13 C9         -22.6100   -51.0310    13.5690 ca         1 Q49      -0.239000
     14 F          -22.6470   -50.2890    15.7950 f          1 Q49      -0.185000
     15 H8         -24.7730   -53.1390    12.0240 ha         1 Q49       0.137000
     16 H9         -25.8140   -53.0880    14.2720 ha         1 Q49       0.121000
     17 H10        -24.7950   -51.7140    16.0960 ha         1 Q49       0.135000
     18 H1         -20.5040   -51.1480     7.0240 h1         1 Q49       0.046367
     19 H          -19.0760   -50.2550     7.5920 h1         1 Q49       0.046367
     20 H2         -19.0310   -52.0270     7.4980 h1         1 Q49       0.046367
     21 H3         -18.5190   -52.1000    10.0480 h1         1 Q49       0.050200
     22 H4         -18.7680   -50.3750    10.3530 h1         1 Q49       0.050200
     23 H5         -20.2990   -52.7460    11.5020 hc         1 Q49       0.071200
     24 H6         -19.8620   -51.2370    12.3190 hc         1 Q49       0.071200
     25 H7         -21.7180   -50.0810    11.2340 h1         1 Q49       0.075700
     26 H11        -21.7150   -50.4470    13.4220 ha         1 Q49       0.132000
     27 O1         -22.4220   -51.0170     8.6260 o          1 Q49      -0.526000
@<TRIPOS>BOND
     1     1     2 ar  
     2     1     9 1   
     3     1    13 ar  
     4     2     3 ar  
     5     2    15 1   
     6     3     4 ar  
     7     3    16 1   
     8     4     5 ar  
     9     4    17 1   
    10     5    13 ar  
    11     5    14 1   
    12     6     7 1   
    13     6    12 1   
    14     6    27 2   
    15     7     8 1   
    16     7    10 1   
    17     8    18 1   
    18     8    19 1   
    19     8    20 1   
    20     9    12 1   
    21    10    11 1   
    22    10    21 1   
    23    10    22 1   
    24    11    12 1   
    25    11    23 1   
    26    11    24 1   
    27    12    25 1   
    28    13    26 1   
@<TRIPOS>SUBSTRUCTURE
     1 Q49         1 TEMP              0 ****  ****    0 ROOT
