@<TRIPOS>MOLECULE
Q4A
   74    78     1     0     0
SMALL
No Charge or Current Charge


@<TRIPOS>ATOM
      1 C2          -2.1900    -1.3010    -0.4640 ca         1 Q4A       0.439900
      2 C5          -2.4230     1.3860    -0.3280 ca         1 Q4A      -0.224000
      3 C4          -3.4780     0.5400     0.0770 ca         1 Q4A       0.121000
      4 CAO         -3.1650    -3.6410    -0.1940 c3         1 Q4A       0.239800
      5 CAP         -2.9160    -4.4570     1.0850 c3         1 Q4A      -0.099400
      6 CAQ         -2.1240    -5.7570     0.8550 c3         1 Q4A       0.169800
      7 NAR         -0.7200    -5.6030     0.4010 n3         1 Q4A      -0.710600
      8 CAU         -0.0230    -6.9090     0.3800 c3         1 Q4A       0.154100
      9 CAS         -0.5700    -4.8760    -0.8970 c3         1 Q4A       0.147800
     10 CAT         -0.7200    -3.3220    -0.8590 c3         1 Q4A       0.241800
     11 NAN         -2.0510    -2.7160    -0.5330 nh         1 Q4A      -0.769300
     12 N1          -1.1380    -0.5720    -0.8730 nb         1 Q4A      -0.341000
     13 N3          -3.3490    -0.7970     0.0050 nb         1 Q4A      -0.300000
     14 CAC         -4.6700     1.1030     0.5610 ca         1 Q4A      -0.207000
     15 CAD         -4.8280     2.5030     0.6470 ca         1 Q4A       0.165100
     16 OAL         -5.9970     3.0770     1.1220 os         1 Q4A      -0.319100
     17 CBI         -7.1230     2.2950     1.5560 c3         1 Q4A       0.143900
     18 CAE         -3.7730     3.3530     0.2430 ca         1 Q4A       0.082100
     19 OAK         -3.9550     4.7250     0.3390 os         1 Q4A      -0.321100
     20 CBJ         -2.9420     5.6710    -0.0460 c3         1 Q4A       0.145900
     21 CAF         -2.5710     2.7920    -0.2450 ca         1 Q4A      -0.128000
     22 C6          -1.2490     0.7610    -0.8040 ca         1 Q4A       0.442900
     23 NAM         -0.1420     1.4950    -1.2290 nu         1 Q4A      -0.928100
     24 CAV          1.2110     0.9590    -1.4700 c6         1 Q4A       0.238500
     25 CBA          2.0360     1.9830    -2.2770 c6         1 Q4A      -0.093400
     26 CAZ          3.4810     1.4730    -2.4780 c6         1 Q4A       0.170300
     27 CAW          1.9210     0.6570    -0.1310 c6         1 Q4A      -0.093400
     28 CAX          3.3700     0.1830    -0.3820 c6         1 Q4A       0.170300
     29 NAY          4.1420     1.1800    -1.1780 n3         1 Q4A      -0.724600
     30 CBB          5.5660     0.8030    -1.3500 c3         1 Q4A       0.216100
     31 CBC          6.3290     0.6850    -0.0330 ca         1 Q4A      -0.087300
     32 CBD          6.7990    -0.5680     0.4120 ca         1 Q4A      -0.099000
     33 CBE          7.5010    -0.6720     1.6250 ca         1 Q4A      -0.114000
     34 CBF          7.7390     0.4750     2.4020 ca         1 Q4A      -0.109000
     35 CBG          7.2720     1.7260     1.9650 ca         1 Q4A      -0.114000
     36 CBH          6.5700     1.8300     0.7510 ca         1 Q4A      -0.099000
     37 HAOA        -4.1080    -3.0970    -0.0590 h1         1 Q4A       0.054700
     38 HAP         -2.4180    -3.8370     1.8400 hc         1 Q4A       0.057200
     39 HAPA        -3.8900    -4.7350     1.5040 hc         1 Q4A       0.057200
     40 HAQ         -2.1300    -6.3080     1.8060 h1         1 Q4A       0.026200
     41 HAQA        -2.6780    -6.3740     0.1340 h1         1 Q4A       0.026200
     42 HAU         -0.4710    -7.5800    -0.3670 h1         1 Q4A       0.029033
     43 HAUA         1.0390    -6.7800     0.1330 h1         1 Q4A       0.029033
     44 HAUB        -0.0820    -7.3980     1.3610 h1         1 Q4A       0.029033
     45 HAS          0.4380    -5.0620    -1.2890 h1         1 Q4A       0.032200
     46 HASA        -1.2650    -5.2850    -1.6420 h1         1 Q4A       0.032200
     47 HAT          0.0220    -2.9490    -0.1400 h1         1 Q4A       0.055200
     48 HATA        -0.4100    -2.9600    -1.8490 h1         1 Q4A       0.055200
     49 HAC         -5.4660     0.4310     0.8660 ha         1 Q4A       0.136000
     50 HBI         -6.8450     1.6440     2.3950 h1         1 Q4A       0.042700
     51 HBIA        -7.9350     2.9520     1.8900 h1         1 Q4A       0.042700
     52 HBIB        -7.5050     1.6720     0.7370 h1         1 Q4A       0.042700
     53 HBJ         -3.3000     6.6960     0.1140 h1         1 Q4A       0.037367
     54 HBJA        -2.0310     5.5330     0.5500 h1         1 Q4A       0.037367
     55 HBJB        -2.6900     5.5620    -1.1090 h1         1 Q4A       0.037367
     56 HAF         -1.7590     3.4390    -0.5560 ha         1 Q4A       0.107000
     57 HNAM        -0.2490     2.5040    -1.1660 hn         1 Q4A       0.491000
     58 HAV          1.1580     0.0310    -2.0630 h1         1 Q4A       0.078700
     59 HBA          1.5680     2.1590    -3.2550 hc         1 Q4A       0.054950
     60 HBAA         2.0620     2.9500    -1.7560 hc         1 Q4A       0.054950
     61 HAZ          3.4590     0.5700    -3.1070 h1         1 Q4A       0.035450
     62 HAZA         4.0480     2.2370    -3.0300 h1         1 Q4A       0.035450
     63 HAW          1.9360     1.5550     0.5010 hc         1 Q4A       0.054950
     64 HAWA         1.3760    -0.1150     0.4270 hc         1 Q4A       0.054950
     65 HAX          3.8480     0.0110     0.5930 h1         1 Q4A       0.035450
     66 HAXA         3.3460    -0.7850    -0.9050 h1         1 Q4A       0.035450
     67 HBB          5.6380    -0.1470    -1.8970 h1         1 Q4A       0.037200
     68 HBBA         6.0750     1.5590    -1.9630 h1         1 Q4A       0.037200
     69 HBD          6.6190    -1.4620    -0.1820 ha         1 Q4A       0.117500
     70 HBE          7.8610    -1.6410     1.9640 ha         1 Q4A       0.111000
     71 HBF          8.2820     0.3940     3.3410 ha         1 Q4A       0.111000
     72 HBG          7.4540     2.6140     2.5660 ha         1 Q4A       0.111000
     73 HBH          6.2070     2.8000     0.4190 ha         1 Q4A       0.117500
     74 HAO         -3.3520    -4.3260    -1.0330 h1         1 Q4A       0.054700
@<TRIPOS>BOND
     1     1    11 1   
     2     1    12 ar  
     3     1    13 ar  
     4     2     3 ar  
     5     2    21 ar  
     6     2    22 ar  
     7     3    13 ar  
     8     3    14 ar  
     9     4     5 1   
    10     4    11 1   
    11     4    37 1   
    12     4    74 1   
    13     5     6 1   
    14     5    38 1   
    15     5    39 1   
    16     6     7 1   
    17     6    40 1   
    18     6    41 1   
    19     7     8 1   
    20     7     9 1   
    21     8    42 1   
    22     8    43 1   
    23     8    44 1   
    24     9    10 1   
    25     9    45 1   
    26     9    46 1   
    27    10    11 1   
    28    10    47 1   
    29    10    48 1   
    30    12    22 ar  
    31    14    15 ar  
    32    14    49 1   
    33    15    16 1   
    34    15    18 ar  
    35    16    17 1   
    36    17    50 1   
    37    17    51 1   
    38    17    52 1   
    39    18    19 1   
    40    18    21 ar  
    41    19    20 1   
    42    20    53 1   
    43    20    54 1   
    44    20    55 1   
    45    21    56 1   
    46    22    23 1   
    47    23    24 1   
    48    23    57 1   
    49    24    25 1   
    50    24    27 1   
    51    24    58 1   
    52    25    26 1   
    53    25    59 1   
    54    25    60 1   
    55    26    29 1   
    56    26    61 1   
    57    26    62 1   
    58    27    28 1   
    59    27    63 1   
    60    27    64 1   
    61    28    29 1   
    62    28    65 1   
    63    28    66 1   
    64    29    30 1   
    65    30    31 1   
    66    30    67 1   
    67    30    68 1   
    68    31    32 ar  
    69    31    36 ar  
    70    32    33 ar  
    71    32    69 1   
    72    33    34 ar  
    73    33    70 1   
    74    34    35 ar  
    75    34    71 1   
    76    35    36 ar  
    77    35    72 1   
    78    36    73 1   
@<TRIPOS>SUBSTRUCTURE
     1 Q4A         1 TEMP              0 ****  ****    0 ROOT
