@<TRIPOS>MOLECULE
Q4A
   74    78     1     0     0
SMALL
abcg2


@<TRIPOS>ATOM
      1 C2          -2.1610    -1.3520    -0.7390 ca         1 Q4A       0.439900
      2 C5          -2.4070     1.2970    -0.2550 ca         1 Q4A      -0.224000
      3 C4          -3.4710     0.3930    -0.1100 ca         1 Q4A       0.121000
      4 CAO         -3.1320    -3.5730    -0.8470 c3         1 Q4A       0.239800
      5 CAP         -3.2640    -4.1000     0.5780 c3         1 Q4A      -0.099400
      6 CAQ         -2.2160    -5.1270     0.9780 c3         1 Q4A       0.169800
      7 NAR         -0.8390    -4.7020     0.7770 n3         1 Q4A      -0.710600
      8 CAU          0.0690    -5.5710     1.5000 c3         1 Q4A       0.154100
      9 CAS         -0.4920    -4.6250    -0.6330 c3         1 Q4A       0.147800
     10 CAT         -0.6960    -3.2460    -1.2500 c3         1 Q4A       0.241800
     11 NAN         -2.0060    -2.6770    -1.0030 nh         1 Q4A      -0.769300
     12 N1          -1.0710    -0.5800    -0.9170 nb         1 Q4A      -0.341000
     13 N3          -3.3480    -0.9320    -0.3430 nb         1 Q4A      -0.300000
     14 CAC         -4.7280     0.8910     0.3060 ca         1 Q4A      -0.207000
     15 CAD         -4.9120     2.2260     0.5610 ca         1 Q4A       0.165100
     16 OAL         -6.0620     2.7820     0.9600 os         1 Q4A      -0.319100
     17 CBI         -7.1840     1.9400     1.1440 c3         1 Q4A       0.143900
     18 CAE         -3.8260     3.1410     0.4070 ca         1 Q4A       0.082100
     19 OAK         -4.1220     4.4260     0.6840 os         1 Q4A      -0.321100
     20 CBJ         -3.0850     5.3780     0.5770 c3         1 Q4A       0.145900
     21 CAF         -2.6050     2.6720     0.0050 ca         1 Q4A      -0.128000
     22 C6          -1.1670     0.7110    -0.6800 ca         1 Q4A       0.442900
     23 NAM         -0.0760     1.4690    -0.8720 nu         1 Q4A      -0.928100
     24 CAV          1.2180     0.9470    -1.2610 c6         1 Q4A       0.238500
     25 CBA          2.0340     2.0410    -1.9370 c6         1 Q4A      -0.093400
     26 CAZ          3.4130     1.5220    -2.3120 c6         1 Q4A       0.170300
     27 CAW          2.0010     0.3760    -0.0830 c6         1 Q4A      -0.093400
     28 CAX          3.3810    -0.0780    -0.5300 c6         1 Q4A       0.170300
     29 NAY          4.1160     1.0110    -1.1500 n3         1 Q4A      -0.724600
     30 CBB          5.4740     0.6290    -1.4720 c3         1 Q4A       0.216100
     31 CBC          6.3320     0.4330    -0.2480 ca         1 Q4A      -0.087300
     32 CBD          7.2500    -0.6100    -0.1820 ca         1 Q4A      -0.099000
     33 CBE          8.0780    -0.7620     0.9240 ca         1 Q4A      -0.114000
     34 CBF          7.9890     0.1260     1.9870 ca         1 Q4A      -0.109000
     35 CBG          7.0680     1.1670     1.9330 ca         1 Q4A      -0.114000
     36 CBH          6.2480     1.3190     0.8250 ca         1 Q4A      -0.099000
     37 HAOA        -4.0400    -3.0430    -1.1270 h1         1 Q4A       0.054700
     38 HAP         -3.2380    -3.2500     1.2640 hc         1 Q4A       0.057200
     39 HAPA        -4.2460    -4.5670     0.6920 hc         1 Q4A       0.057200
     40 HAQ         -2.3510    -5.3510     2.0390 h1         1 Q4A       0.026200
     41 HAQA        -2.4150    -6.0690     0.4360 h1         1 Q4A       0.026200
     42 HAU          0.0300    -6.6220     1.1730 h1         1 Q4A       0.029033
     43 HAUA         1.0960    -5.2250     1.3810 h1         1 Q4A       0.029033
     44 HAUB        -0.1630    -5.5500     2.5660 h1         1 Q4A       0.029033
     45 HAS          0.5710    -4.8430    -0.7540 h1         1 Q4A       0.032200
     46 HASA        -1.0130    -5.4010    -1.2140 h1         1 Q4A       0.032200
     47 HAT          0.0540    -2.5690    -0.8470 h1         1 Q4A       0.055200
     48 HATA        -0.4990    -3.3300    -2.3260 h1         1 Q4A       0.055200
     49 HAC         -5.5340     0.1770     0.4140 ha         1 Q4A       0.136000
     50 HBI         -6.9980     1.1780     1.9050 h1         1 Q4A       0.042700
     51 HBIA        -7.9980     2.5800     1.4760 h1         1 Q4A       0.042700
     52 HBIB        -7.4770     1.4460     0.2150 h1         1 Q4A       0.042700
     53 HBJ         -3.5170     6.3400     0.8420 h1         1 Q4A       0.037367
     54 HBJA        -2.2600     5.1600     1.2620 h1         1 Q4A       0.037367
     55 HBJB        -2.6880     5.4380    -0.4400 h1         1 Q4A       0.037367
     56 HAF         -1.7870     3.3700    -0.1100 ha         1 Q4A       0.107000
     57 HNAM        -0.1090     2.4370    -0.6010 hn         1 Q4A       0.491000
     58 HAV          1.0480     0.1430    -1.9820 h1         1 Q4A       0.078700
     59 HBA          1.5220     2.3940    -2.8350 hc         1 Q4A       0.054950
     60 HBAA         2.1400     2.8960    -1.2610 hc         1 Q4A       0.054950
     61 HAZ          3.3080     0.7500    -3.0940 h1         1 Q4A       0.035450
     62 HAZA         3.9990     2.3350    -2.7480 h1         1 Q4A       0.035450
     63 HAW          2.1030     1.1420     0.6920 hc         1 Q4A       0.054950
     64 HAWA         1.4600    -0.4660     0.3520 hc         1 Q4A       0.054950
     65 HAX          3.9410    -0.4410     0.3330 h1         1 Q4A       0.035450
     66 HAXA         3.2830    -0.9320    -1.2250 h1         1 Q4A       0.035450
     67 HBB          5.5140    -0.2800    -2.0960 h1         1 Q4A       0.037200
     68 HBBA         5.9140     1.4280    -2.0780 h1         1 Q4A       0.037200
     69 HBD          7.3200    -1.3140    -1.0040 ha         1 Q4A       0.117500
     70 HBE          8.7850    -1.5810     0.9580 ha         1 Q4A       0.111000
     71 HBF          8.6280     0.0070     2.8530 ha         1 Q4A       0.111000
     72 HBG          6.9880     1.8610     2.7600 ha         1 Q4A       0.111000
     73 HBH          5.5250     2.1240     0.7910 ha         1 Q4A       0.117500
     74 HAO         -3.0240    -4.3980    -1.5560 h1         1 Q4A       0.054700
@<TRIPOS>BOND
     1     1    11 1   
     2     1    12 ar  
     3     1    13 ar  
     4     2     3 ar  
     5     2    21 ar  
     6     2    22 ar  
     7     3    13 ar  
     8     3    14 ar  
     9     4     5 1   
    10     4    11 1   
    11     4    37 1   
    12     4    74 1   
    13     5     6 1   
    14     5    38 1   
    15     5    39 1   
    16     6     7 1   
    17     6    40 1   
    18     6    41 1   
    19     7     8 1   
    20     7     9 1   
    21     8    42 1   
    22     8    43 1   
    23     8    44 1   
    24     9    10 1   
    25     9    45 1   
    26     9    46 1   
    27    10    11 1   
    28    10    47 1   
    29    10    48 1   
    30    12    22 ar  
    31    14    15 ar  
    32    14    49 1   
    33    15    16 1   
    34    15    18 ar  
    35    16    17 1   
    36    17    50 1   
    37    17    51 1   
    38    17    52 1   
    39    18    19 1   
    40    18    21 ar  
    41    19    20 1   
    42    20    53 1   
    43    20    54 1   
    44    20    55 1   
    45    21    56 1   
    46    22    23 1   
    47    23    24 1   
    48    23    57 1   
    49    24    25 1   
    50    24    27 1   
    51    24    58 1   
    52    25    26 1   
    53    25    59 1   
    54    25    60 1   
    55    26    29 1   
    56    26    61 1   
    57    26    62 1   
    58    27    28 1   
    59    27    63 1   
    60    27    64 1   
    61    28    29 1   
    62    28    65 1   
    63    28    66 1   
    64    29    30 1   
    65    30    31 1   
    66    30    67 1   
    67    30    68 1   
    68    31    32 ar  
    69    31    36 ar  
    70    32    33 ar  
    71    32    69 1   
    72    33    34 ar  
    73    33    70 1   
    74    34    35 ar  
    75    34    71 1   
    76    35    36 ar  
    77    35    72 1   
    78    36    73 1   
@<TRIPOS>SUBSTRUCTURE
     1 Q4A         1 TEMP              0 ****  ****    0 ROOT
