@<TRIPOS>MOLECULE
Q4C
   58    61     1     0     0
SMALL
No Charge or Current Charge


@<TRIPOS>ATOM
      1 N1          10.8170    -2.1550     9.0730 ns         1 Q4C      -0.500900
      2 N3          16.0090     2.8870     3.1850 nb         1 Q4C      -0.670000
      3 C4          10.6160    -2.6340    10.4410 c3         1 Q4C       0.149300
      4 C5          11.6740    -3.6570    10.8270 ca         1 Q4C      -0.098300
      5 C6          12.8940    -3.2360    11.3950 ca         1 Q4C      -0.107000
      6 C7          13.8730    -4.1810    11.7430 ca         1 Q4C       0.133000
      7 C8          13.6410    -5.5520    11.5270 ca         1 Q4C       0.133000
      8 C10         11.4470    -5.0320    10.6090 ca         1 Q4C      -0.097000
      9 C15         16.8530     3.8340     2.7000 ca         1 Q4C       0.304900
     10 C17         15.2410     5.6110     3.0100 ca         1 Q4C      -0.142000
     11 C20         11.3000    -1.1130     4.8750 ca         1 Q4C      -0.162000
     12 C21         12.9360     5.0680     3.9130 c3         1 Q4C      -0.049800
     13 C22         18.2390     5.8840     0.8240 c6         1 Q4C       0.163300
     14 C24         18.6780     8.4020     2.2190 c6         1 Q4C       0.146100
     15 C1          11.1300    -1.4890     6.2110 ca         1 Q4C       0.214000
     16 C2          11.6800    -0.7070     7.2520 ca         1 Q4C      -0.192600
     17 C3          11.5380    -1.0360     8.7250 c          1 Q4C       0.617700
     18 O1          12.0470    -0.3340     9.5870 o          1 Q4C      -0.593100
     19 F1          15.0400    -3.7630    12.2870 f          1 Q4C      -0.162000
     20 F2          14.5800    -6.4670    11.8600 f          1 Q4C      -0.163000
     21 C9          12.4280    -5.9770    10.9590 ca         1 Q4C      -0.123000
     22 C11         12.4100     0.4520     6.8950 ca         1 Q4C       0.011000
     23 C12         12.6070     0.8350     5.5470 ca         1 Q4C      -0.163600
     24 N2          14.0270     2.2320     4.0740 ns         1 Q4C      -0.314900
     25 C14         14.7920     3.2980     3.5910 ca         1 Q4C       0.415900
     26 C16         16.5310     5.2180     2.5910 ca         1 Q4C       0.252000
     27 N4          17.4600     6.1740     2.0750 nh         1 Q4C      -0.784400
     28 C18         14.3470     4.6430     3.5140 ca         1 Q4C      -0.061300
     29 O2          13.5460     2.9450     6.1640 o          1 Q4C      -0.568100
     30 C19         12.0240     0.0350     4.5290 ca         1 Q4C       0.184000
     31 C23         19.5460     6.7260     0.7290 c6         1 Q4C       0.146100
     32 O3          19.2680     8.1320     0.9260 os         1 Q4C      -0.451000
     33 C25         17.3310     7.6380     2.3850 c6         1 Q4C       0.163300
     34 H1          10.4270    -2.6970     8.3120 hn         1 Q4C       0.329500
     35 H2          10.6380    -1.7880    11.1410 h1         1 Q4C       0.072200
     36 H3           9.6190    -3.0890    10.5110 h1         1 Q4C       0.072200
     37 H4          13.0860    -2.1790    11.5630 ha         1 Q4C       0.143000
     38 H5          10.5110    -5.3680    10.1670 ha         1 Q4C       0.121000
     39 H6          17.8340     3.4720     2.3980 h4         1 Q4C       0.023100
     40 H7          14.9240     6.6460     2.9310 ha         1 Q4C       0.120000
     41 H8          10.8520    -1.7190     4.0930 ha         1 Q4C       0.155000
     42 H9          12.2030     4.2760     3.7220 hc         1 Q4C       0.053700
     43 H10         12.8890     5.3270     4.9770 hc         1 Q4C       0.053700
     44 H11         12.6110     5.9480     3.3460 hc         1 Q4C       0.053700
     45 H12         18.5150     4.8210     0.7690 h1         1 Q4C       0.049700
     46 H13         17.6170     6.1000    -0.0570 h1         1 Q4C       0.049700
     47 H14         18.5080     9.4830     2.3200 h1         1 Q4C       0.057200
     48 H15         19.3800     8.0940     3.0070 h1         1 Q4C       0.057200
     49 H16         12.2510    -7.0370    10.7910 ha         1 Q4C       0.137000
     50 H17         12.8470     1.0630     7.6840 ha         1 Q4C       0.166000
     51 H18         13.9470     1.4470     3.4430 hn         1 Q4C       0.166000
     52 H20         20.0090     6.5840    -0.2580 h1         1 Q4C       0.057200
     53 H21         20.2630     6.3890     1.4920 h1         1 Q4C       0.057200
     54 H22         16.9860     7.7800     3.4200 h1         1 Q4C       0.049700
     55 H23         16.5810     8.0960     1.7230 h1         1 Q4C       0.049700
     56 Cl1         12.0770     0.4250     2.8070 cl         1 Q4C      -0.174000
     57 F3          10.4180    -2.6120     6.4550 f          1 Q4C      -0.175000
     58 C13         13.4210     2.0900     5.2970 c          1 Q4C       0.623700
@<TRIPOS>BOND
     1     1     3 1   
     2     1    17 1   
     3     1    34 1   
     4     2     9 ar  
     5     2    25 ar  
     6     3     4 1   
     7     3    35 1   
     8     3    36 1   
     9     4     5 ar  
    10     4     8 ar  
    11     5     6 ar  
    12     5    37 1   
    13     6     7 ar  
    14     6    19 1   
    15     7    20 1   
    16     7    21 ar  
    17     8    21 ar  
    18     8    38 1   
    19     9    26 ar  
    20     9    39 1   
    21    10    26 ar  
    22    10    28 ar  
    23    10    40 1   
    24    11    15 ar  
    25    11    30 ar  
    26    11    41 1   
    27    12    28 1   
    28    12    42 1   
    29    12    43 1   
    30    12    44 1   
    31    13    27 1   
    32    13    31 1   
    33    13    45 1   
    34    13    46 1   
    35    14    32 1   
    36    14    33 1   
    37    14    47 1   
    38    14    48 1   
    39    15    16 ar  
    40    15    57 1   
    41    16    17 1   
    42    16    22 ar  
    43    17    18 2   
    44    21    49 1   
    45    22    23 ar  
    46    22    50 1   
    47    23    30 ar  
    48    23    58 1   
    49    24    25 1   
    50    24    51 1   
    51    24    58 1   
    52    25    28 ar  
    53    26    27 1   
    54    27    33 1   
    55    29    58 2   
    56    30    56 1   
    57    31    32 1   
    58    31    52 1   
    59    31    53 1   
    60    33    54 1   
    61    33    55 1   
@<TRIPOS>SUBSTRUCTURE
     1 Q4C         1 TEMP              0 ****  ****    0 ROOT
