@<TRIPOS>MOLECULE
Q4C
   58    61     1     0     0
SMALL
abcg2


@<TRIPOS>ATOM
      1 N1          10.9520    -2.1610     8.8930 ns         1 Q4C      -0.500900
      2 N3          15.9620     2.8570     3.6780 nb         1 Q4C      -0.670000
      3 C4          10.9680    -2.7020    10.2390 c3         1 Q4C       0.149300
      4 C5          12.1240    -3.6410    10.5120 ca         1 Q4C      -0.098300
      5 C6          13.3880    -3.3990     9.9750 ca         1 Q4C      -0.107000
      6 C7          14.4310    -4.2500    10.2830 ca         1 Q4C       0.133000
      7 C8          14.2390    -5.3380    11.1200 ca         1 Q4C       0.133000
      8 C10         11.9370    -4.7430    11.3440 ca         1 Q4C      -0.097000
      9 C15         16.8810     3.7190     3.2590 ca         1 Q4C       0.304900
     10 C17         15.2390     5.4180     2.9840 ca         1 Q4C      -0.142000
     11 C20         10.4470    -0.5490     4.8800 ca         1 Q4C      -0.162000
     12 C21         12.8150     4.9220     3.3960 c3         1 Q4C      -0.049800
     13 C22         18.7040     5.4470     1.7400 c6         1 Q4C       0.163300
     14 C24         18.4130     8.2190     2.1600 c6         1 Q4C       0.146100
     15 C1          10.5010    -1.0420     6.1670 ca         1 Q4C       0.214000
     16 C2          11.2990    -0.4800     7.1620 ca         1 Q4C      -0.192600
     17 C3          11.3860    -0.9220     8.5980 c          1 Q4C       0.617700
     18 O1          11.8570    -0.1610     9.4440 o          1 Q4C      -0.593100
     19 F1          15.6600    -4.0330     9.7700 f          1 Q4C      -0.162000
     20 F2          15.2850    -6.1440    11.3980 f          1 Q4C      -0.163000
     21 C9          12.9920    -5.5940    11.6550 ca         1 Q4C      -0.123000
     22 C11         12.0640     0.6220     6.7890 ca         1 Q4C       0.011000
     23 C12         12.0740     1.1370     5.4970 ca         1 Q4C      -0.163600
     24 N2          13.7870     2.2370     4.1940 ns         1 Q4C      -0.314900
     25 C14         14.6920     3.2440     3.7680 ca         1 Q4C       0.415900
     26 C16         16.5900     5.0530     2.9180 ca         1 Q4C       0.252000
     27 N4          17.5950     5.9470     2.5590 nh         1 Q4C      -0.784400
     28 C18         14.2600     4.5210     3.4020 ca         1 Q4C      -0.061300
     29 O2          12.8900     3.3100     5.9910 o          1 Q4C      -0.568100
     30 C19         11.2420     0.5380     4.5460 ca         1 Q4C       0.184000
     31 C23         19.8530     6.4370     1.7320 c6         1 Q4C       0.146100
     32 O3          19.4300     7.7250     1.2950 os         1 Q4C      -0.451000
     33 C25         17.2020     7.3030     2.1870 c6         1 Q4C       0.163300
     34 H1          10.6120    -2.7560     8.1560 hn         1 Q4C       0.329500
     35 H2          11.0080    -1.8590    10.9290 h1         1 Q4C       0.072200
     36 H3          10.0290    -3.2280    10.4100 h1         1 Q4C       0.072200
     37 H4          13.5750    -2.5600     9.3180 ha         1 Q4C       0.143000
     38 H5          10.9550    -4.9440    11.7530 ha         1 Q4C       0.121000
     39 H6          17.8920     3.3380     3.2090 h4         1 Q4C       0.023100
     40 H7          14.9200     6.4040     2.6790 ha         1 Q4C       0.120000
     41 H8           9.7850    -1.0050     4.1570 ha         1 Q4C       0.155000
     42 H9          12.1850     4.1120     3.0250 hc         1 Q4C       0.053700
     43 H10         12.4710     5.1560     4.4050 hc         1 Q4C       0.053700
     44 H11         12.6660     5.7980     2.7670 hc         1 Q4C       0.053700
     45 H12         19.0750     4.5050     2.1350 h1         1 Q4C       0.049700
     46 H13         18.3610     5.2710     0.7100 h1         1 Q4C       0.049700
     47 H14         18.1260     9.2020     1.7880 h1         1 Q4C       0.057200
     48 H15         18.8170     8.3260     3.1750 h1         1 Q4C       0.057200
     49 H16         12.8550    -6.4540    12.2970 ha         1 Q4C       0.137000
     50 H17         12.6780     1.0910     7.5440 ha         1 Q4C       0.166000
     51 H18         13.9150     1.3250     3.7780 hn         1 Q4C       0.166000
     52 H20         20.6250     6.1030     1.0400 h1         1 Q4C       0.057200
     53 H21         20.2840     6.5150     2.7380 h1         1 Q4C       0.057200
     54 H22         16.5030     7.6940     2.9250 h1         1 Q4C       0.049700
     55 H23         16.7040     7.3160     1.2060 h1         1 Q4C       0.049700
     56 CL1         11.1050     1.1560     2.9240 cl         1 Q4C      -0.174000
     57 F3           9.7110    -2.1030     6.4420 f          1 Q4C      -0.175000
     58 C13         12.9450     2.3370     5.2480 c          1 Q4C       0.623700
@<TRIPOS>BOND
     1     1     3 1   
     2     1    17 1   
     3     1    34 1   
     4     2     9 ar  
     5     2    25 ar  
     6     3     4 1   
     7     3    35 1   
     8     3    36 1   
     9     4     5 ar  
    10     4     8 ar  
    11     5     6 ar  
    12     5    37 1   
    13     6     7 ar  
    14     6    19 1   
    15     7    20 1   
    16     7    21 ar  
    17     8    21 ar  
    18     8    38 1   
    19     9    26 ar  
    20     9    39 1   
    21    10    26 ar  
    22    10    28 ar  
    23    10    40 1   
    24    11    15 ar  
    25    11    30 ar  
    26    11    41 1   
    27    12    28 1   
    28    12    42 1   
    29    12    43 1   
    30    12    44 1   
    31    13    27 1   
    32    13    31 1   
    33    13    45 1   
    34    13    46 1   
    35    14    32 1   
    36    14    33 1   
    37    14    47 1   
    38    14    48 1   
    39    15    16 ar  
    40    15    57 1   
    41    16    17 1   
    42    16    22 ar  
    43    17    18 2   
    44    21    49 1   
    45    22    23 ar  
    46    22    50 1   
    47    23    30 ar  
    48    23    58 1   
    49    24    25 1   
    50    24    51 1   
    51    24    58 1   
    52    25    28 ar  
    53    26    27 1   
    54    27    33 1   
    55    29    58 2   
    56    30    56 1   
    57    31    32 1   
    58    31    52 1   
    59    31    53 1   
    60    33    54 1   
    61    33    55 1   
@<TRIPOS>SUBSTRUCTURE
     1 Q4C         1 TEMP              0 ****  ****    0 ROOT
