@<TRIPOS>MOLECULE
Q4D
  108   114     1     0     0
SMALL
abcg2


@<TRIPOS>ATOM
      1 C4           9.7610     1.5930    96.9570 c6         1 Q4D      -0.070400
      2 C3          11.1740     1.8490    97.4610 c6         1 Q4D      -0.071400
      3 C2          11.9240     2.7280    96.4680 c6         1 Q4D      -0.034100
      4 C13         11.1270     3.9390    96.0430 ca         1 Q4D      -0.057300
      5 C18         11.8120     5.0130    95.4680 ca         1 Q4D      -0.111000
      6 C17         11.1240     6.1310    95.0350 ca         1 Q4D       0.130000
      7 CL1         12.0090     7.4650    94.3140 cl         1 Q4D      -0.216000
      8 C16          9.7450     6.2200    95.1660 ca         1 Q4D      -0.108000
      9 C15          9.0700     5.1560    95.7450 ca         1 Q4D      -0.094000
     10 C14          9.7330     4.0030    96.1830 ca         1 Q4D      -0.073300
     11 C1           8.9310     2.8810    96.8320 c6         1 Q4D      -0.038700
     12 C12          8.4610     3.3750    98.2210 c3         1 Q4D       0.231800
     13 C11          7.6740     2.5160    96.0210 c3         1 Q4D       0.168600
     14 O1           6.5680     3.3970    96.2600 os         1 Q4D      -0.363100
     15 C10          5.7120     3.0430    97.2790 ca         1 Q4D       0.066100
     16 C5           4.3570     3.1470    97.0090 ca         1 Q4D      -0.096000
     17 C6           3.3950     2.7920    97.9480 ca         1 Q4D      -0.097000
     18 C7           3.8000     2.3300    99.1940 ca         1 Q4D      -0.100300
     19 C8           5.1620     2.2550    99.4790 ca         1 Q4D      -0.165000
     20 C9           6.1560     2.6000    98.5510 ca         1 Q4D       0.291000
     21 N1           7.5020     2.4850    98.8590 nh         1 Q4D      -0.835400
     22 C19          7.9290     1.8070   100.0750 c3         1 Q4D       0.233800
     23 C20          7.9940     2.6650   101.3340 cy         1 Q4D      -0.112700
     24 C31          9.2180     3.5970   101.5460 cy         1 Q4D      -0.089400
     25 C30          9.2800     3.1340   103.0210 cy         1 Q4D      -0.078400
     26 C21          8.3920     1.9240   102.6330 cy         1 Q4D      -0.071700
     27 C22          7.3130     1.4020   103.5690 c3         1 Q4D       0.217500
     28 O4           8.0160     0.6790   104.5990 os         1 Q4D      -0.468000
     29 C34          7.2070    -0.2080   105.3600 c3         1 Q4D       0.157600
     30 C35          8.1100    -1.1210   106.1590 c3         1 Q4D       0.165800
     31 N5           8.8730    -2.0280   105.3170 nq         1 Q4D      -0.690600
     32 C36         10.0550    -1.4880   104.5910 cy         1 Q4D       0.104300
     33 C37         10.8120    -2.7450   105.0020 cy         1 Q4D       0.140000
     34 F1          12.0810    -2.5800   105.4820 f          1 Q4D      -0.105500
     35 F2          10.9110    -3.6910   104.0110 f          1 Q4D      -0.105500
     36 C38          9.7160    -3.0280   106.0220 cy         1 Q4D       0.104300
     37 C29          6.4410     2.4590   104.1810 c2         1 Q4D      -0.231200
     38 C28          5.1280     2.3450   104.3520 c2         1 Q4D      -0.226200
     39 C27          4.2690     3.3650   105.0350 c3         1 Q4D      -0.069200
     40 C26          3.0790     3.8450   104.1920 c3         1 Q4D       0.105000
     41 N2           2.1420     2.7710   103.8710 n          1 Q4D      -0.408800
     42 C32          1.3460     2.2400   104.9740 c3         1 Q4D       0.084300
     43 C25          2.1060     2.1130   102.6940 c          1 Q4D       0.599100
     44 O3           1.4200     1.0980   102.5420 o          1 Q4D      -0.622100
     45 C24          2.9450     2.6640   101.5480 c3         1 Q4D      -0.158400
     46 C23          2.7500     1.9030   100.2350 c3         1 Q4D       0.177300
     47 O2           1.4460     2.1810    99.7700 oh         1 Q4D      -0.649000
     48 C33          2.8480     0.3610   100.3880 c          1 Q4D       0.626100
     49 O5           2.0670    -0.3570    99.7920 o          1 Q4D      -0.554100
     50 N3           3.8950    -0.1100   101.1330 ns         1 Q4D      -0.584300
     51 S1           4.2380    -1.7240   101.4960 s6         1 Q4D       1.328900
     52 O6           5.5200    -1.6270   102.1370 o          1 Q4D      -0.544500
     53 O7           4.0770    -2.4890   100.2970 o          1 Q4D      -0.544500
     54 N4           3.1630    -2.2370   102.5930 n3         1 Q4D      -0.762500
     55 C40          1.8140    -2.6110   102.1420 c3         1 Q4D       0.179600
     56 C39          3.2020    -1.5900   103.9140 c3         1 Q4D       0.179600
     57 H1           9.2250     0.9010    97.6090 hc         1 Q4D       0.051700
     58 H2           9.8180     1.1150    95.9730 hc         1 Q4D       0.051700
     59 H3          11.7030     0.9040    97.5970 hc         1 Q4D       0.044700
     60 H4          11.1420     2.3360    98.4400 hc         1 Q4D       0.044700
     61 H5          12.1560     2.1380    95.5740 hc         1 Q4D       0.052700
     62 H6          12.8830     3.0520    96.8770 hc         1 Q4D       0.052700
     63 H7          12.8890     4.9660    95.3610 ha         1 Q4D       0.127000
     64 H8           9.2130     7.0990    94.8300 ha         1 Q4D       0.132000
     65 H9           7.9960     5.2220    95.8540 ha         1 Q4D       0.136000
     66 H10          9.3250     3.4720    98.8720 h1         1 Q4D       0.055700
     67 H11          8.0340     4.3750    98.1230 h1         1 Q4D       0.055700
     68 H12          7.3670     1.4960    96.2630 h1         1 Q4D       0.062200
     69 H13          7.8790     2.5710    94.9530 h1         1 Q4D       0.062200
     70 H14          4.0650     3.4870    96.0240 ha         1 Q4D       0.129000
     71 H15          2.3450     2.8660    97.7090 ha         1 Q4D       0.136000
     72 H16          5.4860     1.9410   100.4560 ha         1 Q4D       0.102000
     73 H17          7.2720     0.9510   100.2440 h1         1 Q4D       0.058200
     74 H18          8.9250     1.3970    99.8910 h1         1 Q4D       0.058200
     75 H19          7.0630     3.2180   101.4760 hc         1 Q4D       0.061700
     76 H20         10.0830     3.2450   100.9820 hc         1 Q4D       0.052200
     77 H21          9.0800     4.6610   101.3550 hc         1 Q4D       0.052200
     78 H22         10.2610     2.9130   103.4380 hc         1 Q4D       0.053700
     79 H23          8.7680     3.8320   103.6830 hc         1 Q4D       0.053700
     80 H24          9.0290     1.0730   102.3750 hc         1 Q4D       0.071700
     81 H25          6.6820     0.6910   103.0210 h1         1 Q4D       0.053700
     82 H26          6.5520     0.3490   106.0380 h1         1 Q4D       0.039700
     83 H27          6.5760    -0.8020   104.6890 h1         1 Q4D       0.039700
     84 H28          8.7720    -0.5160   106.8000 h1         1 Q4D       0.042200
     85 H29          7.4820    -1.7280   106.8160 h1         1 Q4D       0.042200
     86 H31          9.9150    -1.3210   103.5250 h1         1 Q4D       0.076950
     87 H32         10.4870    -0.5980   105.0590 h1         1 Q4D       0.076950
     88 H33         10.0270    -2.7110   107.0230 h1         1 Q4D       0.076950
     89 H34          9.3150    -4.0410   106.0510 h1         1 Q4D       0.076950
     90 H35          6.9450     3.3400   104.5670 ha         1 Q4D       0.181000
     91 H36          4.6270     1.4460   104.0000 ha         1 Q4D       0.159000
     92 H37          4.8680     4.2360   105.3070 hc         1 Q4D       0.057700
     93 H38          3.8780     2.9430   105.9680 hc         1 Q4D       0.057700
     94 H39          3.4320     4.3090   103.2750 h1         1 Q4D       0.058200
     95 H40          2.5320     4.6090   104.7490 h1         1 Q4D       0.058200
     96 H41          1.2560     3.0100   105.7380 h1         1 Q4D       0.045367
     97 H42          0.3550     1.9690   104.6170 h1         1 Q4D       0.045367
     98 H43          1.8080     1.3550   105.4170 h1         1 Q4D       0.045367
     99 H44          3.9950     2.6870   101.8380 hc         1 Q4D       0.081200
    100 H45          2.6730     3.7030   101.3520 hc         1 Q4D       0.081200
    101 H46          1.0960     1.3450    99.4200 ho         1 Q4D       0.482000
    102 H47          4.4580     0.5320   101.6700 hn         1 Q4D       0.327500
    103 H48          1.4150    -3.3170   102.8690 h1         1 Q4D       0.059200
    104 H49          1.1600    -1.7390   102.0870 h1         1 Q4D       0.059200
    105 H50          1.8690    -3.0910   101.1700 h1         1 Q4D       0.059200
    106 H51          2.7170    -2.2630   104.6190 h1         1 Q4D       0.059200
    107 H52          4.2310    -1.4370   104.2220 h1         1 Q4D       0.059200
    108 H53          2.6690    -0.6360   103.8990 h1         1 Q4D       0.059200
@<TRIPOS>BOND
     1     1     2 1   
     2     1    11 1   
     3     1    57 1   
     4     1    58 1   
     5     2     3 1   
     6     2    59 1   
     7     2    60 1   
     8     3     4 1   
     9     3    61 1   
    10     3    62 1   
    11     4     5 ar  
    12     4    10 ar  
    13     5     6 ar  
    14     5    63 1   
    15     6     7 1   
    16     6     8 ar  
    17     8     9 ar  
    18     8    64 1   
    19     9    10 ar  
    20     9    65 1   
    21    10    11 1   
    22    11    12 1   
    23    11    13 1   
    24    12    21 1   
    25    12    66 1   
    26    12    67 1   
    27    13    14 1   
    28    13    68 1   
    29    13    69 1   
    30    14    15 1   
    31    15    16 ar  
    32    15    20 ar  
    33    16    17 ar  
    34    16    70 1   
    35    17    18 ar  
    36    17    71 1   
    37    18    19 ar  
    38    18    46 1   
    39    19    20 ar  
    40    19    72 1   
    41    20    21 1   
    42    21    22 1   
    43    22    23 1   
    44    22    73 1   
    45    22    74 1   
    46    23    24 1   
    47    23    26 1   
    48    23    75 1   
    49    24    25 1   
    50    24    76 1   
    51    24    77 1   
    52    25    26 1   
    53    25    78 1   
    54    25    79 1   
    55    26    27 1   
    56    26    80 1   
    57    27    28 1   
    58    27    37 1   
    59    27    81 1   
    60    28    29 1   
    61    29    30 1   
    62    29    82 1   
    63    29    83 1   
    64    30    31 1   
    65    30    84 1   
    66    30    85 1   
    67    31    32 1   
    68    31    36 1   
    69    32    33 1   
    70    32    86 1   
    71    32    87 1   
    72    33    34 1   
    73    33    35 1   
    74    33    36 1   
    75    36    88 1   
    76    36    89 1   
    77    37    38 2   
    78    37    90 1   
    79    38    39 1   
    80    38    91 1   
    81    39    40 1   
    82    39    92 1   
    83    39    93 1   
    84    40    41 1   
    85    40    94 1   
    86    40    95 1   
    87    41    42 1   
    88    41    43 1   
    89    42    96 1   
    90    42    97 1   
    91    42    98 1   
    92    43    44 2   
    93    43    45 1   
    94    45    46 1   
    95    45    99 1   
    96    45   100 1   
    97    46    47 1   
    98    46    48 1   
    99    47   101 1   
   100    48    49 2   
   101    48    50 1   
   102    50    51 1   
   103    50   102 1   
   104    51    52 2   
   105    51    53 2   
   106    51    54 1   
   107    54    55 1   
   108    54    56 1   
   109    55   103 1   
   110    55   104 1   
   111    55   105 1   
   112    56   106 1   
   113    56   107 1   
   114    56   108 1   
@<TRIPOS>SUBSTRUCTURE
     1 Q4D         1 TEMP              0 ****  ****    0 ROOT
