@<TRIPOS>MOLECULE
Q4D
  108   114     1     0     0
SMALL
No Charge or Current Charge


@<TRIPOS>ATOM
      1 C4           9.9050     1.7720    96.8820 c6         1 Q4D      -0.070400
      2 C3          11.2610     2.1580    97.4990 c6         1 Q4D      -0.071400
      3 C2          11.9840     3.1570    96.5790 c6         1 Q4D      -0.034100
      4 C13         11.0820     4.2790    96.0510 ca         1 Q4D      -0.057300
      5 C18         11.7080     5.4030    95.4770 ca         1 Q4D      -0.111000
      6 C17         10.9470     6.4640    94.9710 ca         1 Q4D       0.130000
      7 Cl1         11.7460     7.8620    94.2620 cl         1 Q4D      -0.216000
      8 C16          9.5500     6.4150    95.0370 ca         1 Q4D      -0.108000
      9 C15          8.9130     5.2980    95.6010 ca         1 Q4D      -0.094000
     10 C14          9.6610     4.2060    96.1040 ca         1 Q4D      -0.073300
     11 C1           8.9330     2.9890    96.7490 c6         1 Q4D      -0.038700
     12 C12          8.3930     3.4440    98.1420 c3         1 Q4D       0.231800
     13 C11          7.7200     2.5000    95.8810 c3         1 Q4D       0.168600
     14 O1           6.5190     3.2740    96.0840 os         1 Q4D      -0.363100
     15 C10          5.6450     2.9830    97.1200 ca         1 Q4D       0.066100
     16 C5           4.2780     3.0870    96.8250 ca         1 Q4D      -0.096000
     17 C6           3.3070     2.7390    97.7730 ca         1 Q4D      -0.097000
     18 C7           3.6830     2.2930    99.0610 ca         1 Q4D      -0.100300
     19 C8           5.0640     2.2240    99.3620 ca         1 Q4D      -0.165000
     20 C9           6.0620     2.5600    98.4190 ca         1 Q4D       0.291000
     21 N1           7.4380     2.5230    98.8000 nh         1 Q4D      -0.835400
     22 C19          7.9430     1.6870    99.9210 c3         1 Q4D       0.233800
     23 C20          8.1970     2.4920   101.2140 cy         1 Q4D      -0.112700
     24 C31          9.6060     3.1700   101.3870 cy         1 Q4D      -0.089400
     25 C30          9.4230     2.9420   102.9170 cy         1 Q4D      -0.078400
     26 C21          8.5590     1.6910   102.5160 cy         1 Q4D      -0.071700
     27 C22          7.4320     1.1820   103.4480 c3         1 Q4D       0.217500
     28 O4           8.0820     0.5000   104.5330 os         1 Q4D      -0.468000
     29 C34          7.2370    -0.3790   105.3110 c3         1 Q4D       0.157600
     30 C35          8.0960    -1.1020   106.3830 c3         1 Q4D       0.165800
     31 N5           8.9990    -2.1340   105.8370 nq         1 Q4D      -0.690600
     32 C36         10.1360    -1.7790   104.9300 cy         1 Q4D       0.104300
     33 C37         10.7540    -3.1520   105.3730 cy         1 Q4D       0.140000
     34 F1          12.1090    -3.1900   105.4800 f          1 Q4D      -0.105500
     35 F2          10.3580    -4.2430   104.6570 f          1 Q4D      -0.105500
     36 C38          9.9650    -2.8790   106.7030 cy         1 Q4D       0.104300
     37 C29          6.5340     2.2550   104.0490 c2         1 Q4D      -0.231200
     38 C28          5.2100     2.1640   104.2570 c2         1 Q4D      -0.226200
     39 C27          4.3870     3.2020   105.0010 c3         1 Q4D      -0.069200
     40 C26          3.1930     3.7660   104.2010 c3         1 Q4D       0.105000
     41 N2           2.1400     2.7570   103.9130 n          1 Q4D      -0.408800
     42 C32          1.2680     2.3640   105.0450 c3         1 Q4D       0.084300
     43 C25          1.9370     2.1730   102.6390 c          1 Q4D       0.599100
     44 O3           1.0650     1.3260   102.4980 o          1 Q4D      -0.622100
     45 C24          2.8410     2.5950   101.4610 c3         1 Q4D      -0.158400
     46 C23          2.6330     1.8410   100.1110 c3         1 Q4D       0.177300
     47 O2           1.3060     2.1910    99.6520 oh         1 Q4D      -0.649000
     48 C33          2.7630     0.2710   100.2600 c          1 Q4D       0.626100
     49 O5           2.0540    -0.4810    99.6040 o          1 Q4D      -0.554100
     50 N3           3.6760    -0.1850   101.1690 ns         1 Q4D      -0.584300
     51 S1           4.1370    -1.7490   101.4860 s6         1 Q4D       1.328900
     52 O6           5.4610    -1.7150   102.1070 o          1 Q4D      -0.544500
     53 O7           3.8900    -2.6140   100.3300 o          1 Q4D      -0.544500
     54 N4           3.0320    -2.2160   102.7180 n3         1 Q4D      -0.762500
     55 C40          1.6230    -2.3330   102.2840 c3         1 Q4D       0.179600
     56 C39          3.1650    -1.4730   103.9900 c3         1 Q4D       0.179600
     57 H1           9.4420     0.9690    97.4710 hc         1 Q4D       0.051700
     58 H2          10.0870     1.3370    95.8880 hc         1 Q4D       0.051700
     59 H3          11.8830     1.2620    97.6320 hc         1 Q4D       0.044700
     60 H4          11.1280     2.5910    98.4980 hc         1 Q4D       0.044700
     61 H5          12.4030     2.6150    95.7200 hc         1 Q4D       0.052700
     62 H6          12.8420     3.5850    97.1150 hc         1 Q4D       0.052700
     63 H7          12.7920     5.4550    95.4240 ha         1 Q4D       0.127000
     64 H8           8.9600     7.2430    94.6530 ha         1 Q4D       0.132000
     65 H9           7.8280     5.3010    95.6500 ha         1 Q4D       0.136000
     66 H10          9.2460     3.6500    98.7960 h1         1 Q4D       0.055700
     67 H11          7.8970     4.4160    98.0160 h1         1 Q4D       0.055700
     68 H12          7.5110     1.4460    96.1070 h1         1 Q4D       0.062200
     69 H13          8.0200     2.5440    94.8260 h1         1 Q4D       0.062200
     70 H14          3.9680     3.4120    95.8350 ha         1 Q4D       0.129000
     71 H15          2.2620     2.8110    97.4820 ha         1 Q4D       0.136000
     72 H16          5.3680     1.9090   100.3510 ha         1 Q4D       0.102000
     73 H17          7.2410     0.8730   100.1470 h1         1 Q4D       0.058200
     74 H18          8.8850     1.1990    99.6380 h1         1 Q4D       0.058200
     75 H19          7.3580     3.1840   101.3600 hc         1 Q4D       0.061700
     76 H20         10.4410     2.6120   100.9460 hc         1 Q4D       0.052200
     77 H21          9.6780     4.2150   101.0670 hc         1 Q4D       0.052200
     78 H22         10.3360     2.7280   103.4820 hc         1 Q4D       0.053700
     79 H23          8.8930     3.7610   103.4160 hc         1 Q4D       0.053700
     80 H24          9.1830     0.8170   102.2920 hc         1 Q4D       0.071700
     81 H25          6.8270     0.4770   102.8610 h1         1 Q4D       0.053700
     82 H26          6.4540     0.1940   105.8230 h1         1 Q4D       0.039700
     83 H27          6.7510    -1.1270   104.6710 h1         1 Q4D       0.039700
     84 H28          8.6850    -0.3570   106.9350 h1         1 Q4D       0.042200
     85 H29          7.4180    -1.5860   107.0980 h1         1 Q4D       0.042200
     86 H31          9.8990    -1.7040   103.8620 h1         1 Q4D       0.076950
     87 H32         10.7290    -0.9100   105.2440 h1         1 Q4D       0.076950
     88 H33         10.5210    -2.2620   107.4200 h1         1 Q4D       0.076950
     89 H34          9.5790    -3.7770   107.2000 h1         1 Q4D       0.076950
     90 H35          7.0690     3.1310   104.4100 ha         1 Q4D       0.181000
     91 H36          4.6610     1.2700   103.9620 ha         1 Q4D       0.159000
     92 H37          5.0250     4.0450   105.2950 hc         1 Q4D       0.057700
     93 H38          4.0140     2.7700   105.9380 hc         1 Q4D       0.057700
     94 H39          3.5630     4.2410   103.2850 h1         1 Q4D       0.058200
     95 H40          2.7350     4.5700   104.7930 h1         1 Q4D       0.058200
     96 H41          1.5040     2.9520   105.9400 h1         1 Q4D       0.045367
     97 H42          0.2160     2.5350   104.7800 h1         1 Q4D       0.045367
     98 H43          1.4140     1.3000   105.2710 h1         1 Q4D       0.045367
     99 H44          3.8750     2.5690   101.8110 hc         1 Q4D       0.081200
    100 H45          2.7060     3.6720   101.3180 hc         1 Q4D       0.081200
    101 H46          0.9140     1.3610    99.2960 ho         1 Q4D       0.482000
    102 H47          4.2590     0.4670   101.6600 hn         1 Q4D       0.327500
    103 H48          1.0080    -2.7720   103.0800 h1         1 Q4D       0.059200
    104 H49          1.1970    -1.3530   102.0350 h1         1 Q4D       0.059200
    105 H50          1.5290    -2.9830   101.4030 h1         1 Q4D       0.059200
    106 H51          2.5140    -1.9060   104.7610 h1         1 Q4D       0.059200
    107 H52          4.1940    -1.5140   104.3710 h1         1 Q4D       0.059200
    108 H53          2.8830    -0.4190   103.8670 h1         1 Q4D       0.059200
@<TRIPOS>BOND
     1     1     2 1   
     2     1    11 1   
     3     1    57 1   
     4     1    58 1   
     5     2     3 1   
     6     2    59 1   
     7     2    60 1   
     8     3     4 1   
     9     3    61 1   
    10     3    62 1   
    11     4     5 ar  
    12     4    10 ar  
    13     5     6 ar  
    14     5    63 1   
    15     6     7 1   
    16     6     8 ar  
    17     8     9 ar  
    18     8    64 1   
    19     9    10 ar  
    20     9    65 1   
    21    10    11 1   
    22    11    12 1   
    23    11    13 1   
    24    12    21 1   
    25    12    66 1   
    26    12    67 1   
    27    13    14 1   
    28    13    68 1   
    29    13    69 1   
    30    14    15 1   
    31    15    16 ar  
    32    15    20 ar  
    33    16    17 ar  
    34    16    70 1   
    35    17    18 ar  
    36    17    71 1   
    37    18    19 ar  
    38    18    46 1   
    39    19    20 ar  
    40    19    72 1   
    41    20    21 1   
    42    21    22 1   
    43    22    23 1   
    44    22    73 1   
    45    22    74 1   
    46    23    24 1   
    47    23    26 1   
    48    23    75 1   
    49    24    25 1   
    50    24    76 1   
    51    24    77 1   
    52    25    26 1   
    53    25    78 1   
    54    25    79 1   
    55    26    27 1   
    56    26    80 1   
    57    27    28 1   
    58    27    37 1   
    59    27    81 1   
    60    28    29 1   
    61    29    30 1   
    62    29    82 1   
    63    29    83 1   
    64    30    31 1   
    65    30    84 1   
    66    30    85 1   
    67    31    32 1   
    68    31    36 1   
    69    32    33 1   
    70    32    86 1   
    71    32    87 1   
    72    33    34 1   
    73    33    35 1   
    74    33    36 1   
    75    36    88 1   
    76    36    89 1   
    77    37    38 2   
    78    37    90 1   
    79    38    39 1   
    80    38    91 1   
    81    39    40 1   
    82    39    92 1   
    83    39    93 1   
    84    40    41 1   
    85    40    94 1   
    86    40    95 1   
    87    41    42 1   
    88    41    43 1   
    89    42    96 1   
    90    42    97 1   
    91    42    98 1   
    92    43    44 2   
    93    43    45 1   
    94    45    46 1   
    95    45    99 1   
    96    45   100 1   
    97    46    47 1   
    98    46    48 1   
    99    47   101 1   
   100    48    49 2   
   101    48    50 1   
   102    50    51 1   
   103    50   102 1   
   104    51    52 2   
   105    51    53 2   
   106    51    54 1   
   107    54    55 1   
   108    54    56 1   
   109    55   103 1   
   110    55   104 1   
   111    55   105 1   
   112    56   106 1   
   113    56   107 1   
   114    56   108 1   
@<TRIPOS>SUBSTRUCTURE
     1 Q4D         1 TEMP              0 ****  ****    0 ROOT
