@<TRIPOS>MOLECULE
Q4E
   38    40     1     0     0
SMALL
abcg2


@<TRIPOS>ATOM
      1 S1          97.7860    47.7170    11.1510 ss         1 Q4E      -0.024400
      2 C2          97.4410    48.9340     8.6050 c3         1 Q4E      -0.078300
      3 C3          97.4690    47.8530     7.5150 c3         1 Q4E      -0.085433
      4 C4          98.8640    49.4150     8.8840 c3         1 Q4E      -0.085433
      5 C5          96.8250    48.3210     9.8380 cc         1 Q4E       0.452700
      6 C6          95.2820    47.4890    11.1750 cd         1 Q4E       0.245300
      7 C8          92.5810    46.9150     9.4480 cc         1 Q4E       0.524800
      8 C10         91.6990    44.2160     7.3280 ca         1 Q4E      -0.098000
      9 C11         91.8460    42.8510     7.2580 ca         1 Q4E      -0.069000
     10 C1          96.5760    50.1100     8.1460 c3         1 Q4E      -0.085433
     11 N1          95.5580    48.1300    10.0010 nd         1 Q4E      -0.654000
     12 C7          93.8560    47.1890    11.5050 c3         1 Q4E       0.075700
     13 N2          93.2620    46.3370    10.4780 n          1 Q4E      -0.330300
     14 N3          92.0730    46.2980     8.4490 nd         1 Q4E      -0.628100
     15 C9          92.2370    44.9340     8.4050 ca         1 Q4E       0.187400
     16 C12         92.5400    42.1750     8.2670 ca         1 Q4E       0.090000
     17 CL1         92.7150    40.4570     8.1600 cl         1 Q4E      -0.195000
     18 C13         93.0810    42.8510     9.3350 ca         1 Q4E      -0.034000
     19 C14         92.9280    44.2380     9.4040 ca         1 Q4E      -0.198600
     20 C15         93.5040    44.9750    10.5250 c          1 Q4E       0.575600
     21 O1          94.1430    44.4750    11.4310 o          1 Q4E      -0.533000
     22 C16         96.3620    47.1760    11.9330 cc         1 Q4E      -0.232000
     23 H6          98.0640    46.9930     7.8250 hc         1 Q4E       0.042700
     24 H4          96.4620    47.5040     7.2830 hc         1 Q4E       0.042700
     25 H5          97.9090    48.2530     6.6000 hc         1 Q4E       0.042700
     26 H8          98.8900    50.1720     9.6700 hc         1 Q4E       0.042700
     27 H9          99.5260    48.5960     9.1750 hc         1 Q4E       0.042700
     28 H7          99.2870    49.8590     7.9820 hc         1 Q4E       0.042700
     29 H13         91.1670    44.7500     6.5530 ha         1 Q4E       0.138000
     30 H14         91.4290    42.3020     6.4250 ha         1 Q4E       0.132000
     31 H3          96.5370    50.8940     8.9030 hc         1 Q4E       0.042700
     32 H1          96.9940    50.5430     7.2350 hc         1 Q4E       0.042700
     33 H2          95.5570    49.7930     7.9330 hc         1 Q4E       0.042700
     34 H11         93.2720    48.1090    11.5440 h1         1 Q4E       0.074200
     35 H10         93.7670    46.7040    12.4730 h1         1 Q4E       0.074200
     36 H15         93.6160    42.3240    10.1130 ha         1 Q4E       0.150000
     37 H16         96.3890    46.6690    12.8850 h4         1 Q4E       0.170000
     38 H12         92.4700    47.9900     9.5210 h5         1 Q4E       0.055800
@<TRIPOS>BOND
     1     1     5 1   
     2     1    22 1   
     3     2     3 1   
     4     2     4 1   
     5     2     5 1   
     6     2    10 1   
     7     3    23 1   
     8     3    24 1   
     9     3    25 1   
    10     4    26 1   
    11     4    27 1   
    12     4    28 1   
    13     5    11 2   
    14     6    11 1   
    15     6    12 1   
    16     6    22 2   
    17     7    13 1   
    18     7    14 2   
    19     7    38 1   
    20     8     9 ar  
    21     8    15 ar  
    22     8    29 1   
    23     9    16 ar  
    24     9    30 1   
    25    10    31 1   
    26    10    32 1   
    27    10    33 1   
    28    12    13 1   
    29    12    34 1   
    30    12    35 1   
    31    13    20 1   
    32    14    15 1   
    33    15    19 ar  
    34    16    17 1   
    35    16    18 ar  
    36    18    19 ar  
    37    18    36 1   
    38    19    20 1   
    39    20    21 2   
    40    22    37 1   
@<TRIPOS>SUBSTRUCTURE
     1 Q4E         1 TEMP              0 ****  ****    0 ROOT
