@<TRIPOS>MOLECULE
Q4E
   38    40     1     0     0
SMALL
No Charge or Current Charge


@<TRIPOS>ATOM
      1 S1          98.0800    47.3000    10.7050 ss         1 Q4E      -0.024400
      2 C2          97.6610    49.1900     8.6070 c3         1 Q4E      -0.078300
      3 C3          98.4590    48.3270     7.5910 c3         1 Q4E      -0.085433
      4 C4          98.6180    50.2230     9.2620 c3         1 Q4E      -0.085433
      5 C5          97.0550    48.2890     9.6860 cc         1 Q4E       0.452700
      6 C6          95.5140    47.2910    10.9530 cd         1 Q4E       0.245300
      7 C8          92.6490    46.7900     9.3750 cc         1 Q4E       0.524800
      8 C10         91.2100    44.0820     7.5130 ca         1 Q4E      -0.098000
      9 C11         91.1650    42.6770     7.5090 ca         1 Q4E      -0.069000
     10 C1          96.5640    49.9720     7.8240 c3         1 Q4E      -0.085433
     11 N1          95.7490    48.1880     9.9220 nd         1 Q4E      -0.654000
     12 C7          94.0970    47.0030    11.3820 c3         1 Q4E       0.075700
     13 N2          93.3450    46.1760    10.4060 n          1 Q4E      -0.330300
     14 N3          91.9410    46.1800     8.4190 nd         1 Q4E      -0.628100
     15 C9          91.9430    44.7810     8.4910 ca         1 Q4E       0.187400
     16 C12         91.8580    41.9560     8.4910 ca         1 Q4E       0.090000
     17 Cl1         91.8060    40.1970     8.4930 cl         1 Q4E      -0.195000
     18 C13         92.5920    42.6390     9.4720 ca         1 Q4E      -0.034000
     19 C14         92.6340    44.0520     9.4730 ca         1 Q4E      -0.198600
     20 C15         93.4060    44.7900    10.5010 c          1 Q4E       0.575600
     21 O1          94.0480    44.2150    11.3710 o          1 Q4E      -0.533000
     22 C16         96.6420    46.7170    11.4870 cc         1 Q4E      -0.232000
     23 H6          99.2940    47.8070     8.0760 hc         1 Q4E       0.042700
     24 H4          97.8110    47.5700     7.1310 hc         1 Q4E       0.042700
     25 H5          98.8760    48.9480     6.7890 hc         1 Q4E       0.042700
     26 H8          98.0860    50.8310    10.0040 hc         1 Q4E       0.042700
     27 H9          99.4550    49.7280     9.7700 hc         1 Q4E       0.042700
     28 H7          99.0410    50.9000     8.5100 hc         1 Q4E       0.042700
     29 H13         90.6720    44.6370     6.7480 ha         1 Q4E       0.138000
     30 H14         90.5950    42.1510     6.7470 ha         1 Q4E       0.132000
     31 H3          95.9820    50.6140     8.4970 hc         1 Q4E       0.042700
     32 H1          97.0110    50.6130     7.0540 hc         1 Q4E       0.042700
     33 H2          95.8710    49.2840     7.3240 hc         1 Q4E       0.042700
     34 H11         93.5750    47.9580    11.5220 h1         1 Q4E       0.074200
     35 H10         94.1110    46.5070    12.3610 h1         1 Q4E       0.074200
     36 H15         93.1260    42.0670    10.2290 ha         1 Q4E       0.150000
     37 H16         96.7160    45.9870    12.2830 h4         1 Q4E       0.170000
     38 H12         92.7060    47.8720     9.3860 h5         1 Q4E       0.055800
@<TRIPOS>BOND
     1     1     5 1   
     2     1    22 1   
     3     2     3 1   
     4     2     4 1   
     5     2     5 1   
     6     2    10 1   
     7     3    23 1   
     8     3    24 1   
     9     3    25 1   
    10     4    26 1   
    11     4    27 1   
    12     4    28 1   
    13     5    11 2   
    14     6    11 1   
    15     6    12 1   
    16     6    22 2   
    17     7    13 1   
    18     7    14 2   
    19     7    38 1   
    20     8     9 ar  
    21     8    15 ar  
    22     8    29 1   
    23     9    16 ar  
    24     9    30 1   
    25    10    31 1   
    26    10    32 1   
    27    10    33 1   
    28    12    13 1   
    29    12    34 1   
    30    12    35 1   
    31    13    20 1   
    32    14    15 1   
    33    15    19 ar  
    34    16    17 1   
    35    16    18 ar  
    36    18    19 ar  
    37    18    36 1   
    38    19    20 1   
    39    20    21 2   
    40    22    37 1   
@<TRIPOS>SUBSTRUCTURE
     1 Q4E         1 TEMP              0 ****  ****    0 ROOT
