@<TRIPOS>MOLECULE
Q4G
   24    25     1     0     0
SMALL
abcg2


@<TRIPOS>ATOM
      1 C            3.3600     1.0650     0.4370 c          1 Q4G       0.713600
      2 O            2.8740     2.1760     0.7210 o          1 Q4G      -0.718000
      3 C1           2.3710    -0.0550     0.1310 ca         1 Q4G      -0.140600
      4 C10          0.5470    -2.0990    -0.4110 ca         1 Q4G      -0.119000
      5 C11          1.9100    -2.3490    -0.4550 ca         1 Q4G      -0.151000
      6 C12          2.8180    -1.3350    -0.1860 ca         1 Q4G      -0.072000
      7 C2           1.0010     0.1830     0.1710 ca         1 Q4G      -0.064000
      8 C3           0.0750    -0.8240    -0.0960 cp         1 Q4G      -0.098000
      9 C4          -1.3760    -0.5490    -0.0460 cp         1 Q4G       0.036000
     10 C5          -2.2730    -1.5080     0.4290 ca         1 Q4G      -0.132000
     11 C6          -3.6330    -1.2430     0.4750 ca         1 Q4G      -0.095000
     12 C7          -4.1340    -0.0190     0.0540 ca         1 Q4G      -0.177000
     13 C8          -3.2330     0.9190    -0.4100 ca         1 Q4G       0.162000
     14 C9          -1.8750     0.6830    -0.4710 ca         1 Q4G      -0.145000
     15 F           -3.6950     2.1100    -0.8280 f          1 Q4G      -0.192000
     16 O1           4.5680     0.7700     0.3780 o          1 Q4G      -0.718000
     17 H5          -0.1500    -2.8960    -0.6420 ha         1 Q4G       0.086000
     18 H6           2.2640    -3.3410    -0.7100 ha         1 Q4G       0.087000
     19 H7           3.8810    -1.5340    -0.2240 ha         1 Q4G       0.129000
     20 H            0.6570     1.1730     0.4400 ha         1 Q4G       0.132000
     21 H1          -1.9070    -2.4610     0.7870 ha         1 Q4G       0.116000
     22 H2          -4.3140    -1.9960     0.8510 ha         1 Q4G       0.101000
     23 H3          -5.1930     0.1990     0.0870 ha         1 Q4G       0.116000
     24 H4          -1.2160     1.4460    -0.8660 ha         1 Q4G       0.145000
@<TRIPOS>BOND
     1     1     2 1   
     2     1     3 1   
     3     1    16 1   
     4     3     6 ar  
     5     3     7 ar  
     6     4     5 ar  
     7     4     8 ar  
     8     4    17 1   
     9     5     6 ar  
    10     5    18 1   
    11     6    19 1   
    12     7     8 ar  
    13     7    20 1   
    14     8     9 1   
    15     9    10 ar  
    16     9    14 ar  
    17    10    11 ar  
    18    10    21 1   
    19    11    12 ar  
    20    11    22 1   
    21    12    13 ar  
    22    12    23 1   
    23    13    14 ar  
    24    13    15 1   
    25    14    24 1   
@<TRIPOS>SUBSTRUCTURE
     1 Q4G         1 TEMP              0 ****  ****    0 ROOT
