@<TRIPOS>MOLECULE
Q4G
   24    25     1     0     0
SMALL
No Charge or Current Charge


@<TRIPOS>ATOM
      1 C            3.4160     1.0660     0.4280 c          1 Q4G       0.713600
      2 O            2.9890     2.1820     0.6880 o          1 Q4G      -0.718000
      3 C1           2.4220    -0.0450     0.1340 ca         1 Q4G      -0.140600
      4 C10          0.5680    -2.1130    -0.4060 ca         1 Q4G      -0.119000
      5 C11          1.9450    -2.3720    -0.4520 ca         1 Q4G      -0.151000
      6 C12          2.8680    -1.3480    -0.1850 ca         1 Q4G      -0.072000
      7 C2           1.0280     0.2000     0.1760 ca         1 Q4G      -0.064000
      8 C3           0.0800    -0.8210    -0.0920 cp         1 Q4G      -0.098000
      9 C4          -1.3920    -0.5430    -0.0430 cp         1 Q4G       0.036000
     10 C5          -2.3080    -1.5200     0.4250 ca         1 Q4G      -0.132000
     11 C6          -3.6890    -1.2630     0.4740 ca         1 Q4G      -0.095000
     12 C7          -4.1840    -0.0190     0.0510 ca         1 Q4G      -0.177000
     13 C8          -3.2960     0.9590    -0.4160 ca         1 Q4G       0.162000
     14 C9          -1.9170     0.7050    -0.4630 ca         1 Q4G      -0.145000
     15 F           -3.7720     2.1550    -0.8270 f          1 Q4G      -0.192000
     16 O1           4.6110     0.8070     0.3940 o          1 Q4G      -0.718000
     17 H5          -0.1260    -2.9190    -0.6290 ha         1 Q4G       0.086000
     18 H6           2.3010    -3.3690    -0.6990 ha         1 Q4G       0.087000
     19 H7           3.9320    -1.5710    -0.2270 ha         1 Q4G       0.129000
     20 H            0.6720     1.1940     0.4350 ha         1 Q4G       0.132000
     21 H1          -1.9410    -2.4840     0.7680 ha         1 Q4G       0.116000
     22 H2          -4.3730    -2.0270     0.8400 ha         1 Q4G       0.101000
     23 H3          -5.2510     0.1860     0.0850 ha         1 Q4G       0.116000
     24 H4          -1.2550     1.4770    -0.8440 ha         1 Q4G       0.145000
@<TRIPOS>BOND
     1     1     2 1   
     2     1     3 1   
     3     1    16 1   
     4     3     6 ar  
     5     3     7 ar  
     6     4     5 ar  
     7     4     8 ar  
     8     4    17 1   
     9     5     6 ar  
    10     5    18 1   
    11     6    19 1   
    12     7     8 ar  
    13     7    20 1   
    14     8     9 1   
    15     9    10 ar  
    16     9    14 ar  
    17    10    11 ar  
    18    10    21 1   
    19    11    12 ar  
    20    11    22 1   
    21    12    13 ar  
    22    12    23 1   
    23    13    14 ar  
    24    13    15 1   
    25    14    24 1   
@<TRIPOS>SUBSTRUCTURE
     1 Q4G         1 TEMP              0 ****  ****    0 ROOT
