@<TRIPOS>MOLECULE
Q4H
   13    13     1     0     0
SMALL
No Charge or Current Charge


@<TRIPOS>ATOM
      1 N01         35.6860    11.2060    55.8490 n1         1 Q4H      -0.460000
      2 C02         35.2950    12.2220    55.4320 cg         1 Q4H       0.337000
      3 C03         34.8270    13.4750    54.9230 ca         1 Q4H      -0.225000
      4 C04         34.8320    14.6150    55.7450 ca         1 Q4H       0.185900
      5 N05         34.3970    15.8100    55.2980 nb         1 Q4H      -0.219000
      6 C06         33.9570    15.8500    54.0230 ca         1 Q4H       0.187900
      7 N07         33.9110    14.8170    53.1560 nb         1 Q4H      -0.271000
      8 C08         34.3470    13.6360    53.6140 ca         1 Q4H       0.426900
      9 N09         34.2830    12.6220    52.7070 nv         1 Q4H      -1.063900
     10 H1          35.1880    14.5780    56.7740 h4         1 Q4H       0.032100
     11 H2          33.6040    16.8130    53.6570 h5         1 Q4H       0.051100
     12 H3          34.1120    12.8620    51.7320 hn         1 Q4H       0.509500
     13 H4          34.8070    11.7660    52.8750 hn         1 Q4H       0.509500
@<TRIPOS>BOND
     1     1     2 3   
     2     2     3 1   
     3     3     4 ar  
     4     3     8 ar  
     5     4     5 ar  
     6     4    10 1   
     7     5     6 ar  
     8     6     7 ar  
     9     6    11 1   
    10     7     8 ar  
    11     8     9 1   
    12     9    12 1   
    13     9    13 1   
@<TRIPOS>SUBSTRUCTURE
     1 Q4H         1 TEMP              0 ****  ****    0 ROOT
