@<TRIPOS>MOLECULE
Q4H
   13    13     1     0     0
SMALL
abcg2


@<TRIPOS>ATOM
      1 N01         35.6930    11.2360    55.7920 n1         1 Q4H      -0.460000
      2 C02         35.3160    12.2560    55.4080 cg         1 Q4H       0.337000
      3 C03         34.8450    13.4990    54.9180 ca         1 Q4H      -0.225000
      4 C04         34.8030    14.6210    55.7300 ca         1 Q4H       0.185900
      5 N05         34.3680    15.7970    55.3070 nb         1 Q4H      -0.219000
      6 C06         33.9710    15.8350    54.0390 ca         1 Q4H       0.187900
      7 N07         33.9610    14.8480    53.1700 nb         1 Q4H      -0.271000
      8 C08         34.3970    13.6500    53.5800 ca         1 Q4H       0.426900
      9 N09         34.3880    12.6520    52.7050 nv         1 Q4H      -1.063900
     10 H1          35.1350    14.5500    56.7600 h4         1 Q4H       0.032100
     11 H2          33.6110    16.7910    53.6750 h5         1 Q4H       0.051100
     12 H3          34.0580    12.8160    51.7680 hn         1 Q4H       0.509500
     13 H4          34.7000    11.7230    52.9340 hn         1 Q4H       0.509500
@<TRIPOS>BOND
     1     1     2 3   
     2     2     3 1   
     3     3     4 ar  
     4     3     8 ar  
     5     4     5 ar  
     6     4    10 1   
     7     5     6 ar  
     8     6     7 ar  
     9     6    11 1   
    10     7     8 ar  
    11     8     9 1   
    12     9    12 1   
    13     9    13 1   
@<TRIPOS>SUBSTRUCTURE
     1 Q4H         1 TEMP              0 ****  ****    0 ROOT
