@<TRIPOS>MOLECULE
Q4I
  159   168     1     0     0
SMALL
abcg2


@<TRIPOS>ATOM
      1 CCM          3.5810    -6.1300    73.0320 c          1 Q4I       0.728000
      2 CBW          2.8890    -4.7830    72.7500 c3         1 Q4I       0.006600
      3 OCK          1.5680    -4.7820    73.2680 os         1 Q4I      -0.307100
      4 CDH          0.8210    -3.6920    73.1460 ca         1 Q4I       0.179100
      5 CBL          1.2100    -2.5210    72.5390 ca         1 Q4I      -0.256000
      6 CCY          0.3060    -1.4440    72.4630 ca         1 Q4I       0.339500
      7 CCN          0.7670    -0.1170    71.8350 c          1 Q4I       0.607500
      8 OAF          1.9550    -0.0850    71.4620 o          1 Q4I      -0.710500
      9 OAO         -0.0750     0.7930    71.7750 o          1 Q4I      -0.710500
     10 NBY         -0.9150    -1.5170    72.9300 nb         1 Q4I      -0.727000
     11 CDO         -1.3120    -2.6500    73.5410 ca         1 Q4I       0.261000
     12 CDL         -0.4860    -3.7760    73.7110 ca         1 Q4I      -0.108000
     13 CBH         -0.9660    -4.9020    74.4130 ca         1 Q4I      -0.051000
     14 CAU         -2.2360    -4.8840    74.9260 ca         1 Q4I      -0.154000
     15 CBB         -3.0930    -3.7840    74.7380 ca         1 Q4I      -0.148000
     16 CDE         -2.6540    -2.6880    74.0350 ca         1 Q4I      -0.049000
     17 NCH         -3.4050    -1.5730    73.7020 ns         1 Q4I      -0.098000
     18 CCR         -4.6630    -1.2270    74.0320 c          1 Q4I       0.499600
     19 OAJ         -5.3810    -1.8080    74.8260 o          1 Q4I      -0.633100
     20 CDA         -5.1180     0.0160    73.3110 ca         1 Q4I       0.343500
     21 CBM         -6.2880     0.6630    73.7270 ca         1 Q4I      -0.227000
     22 CDG         -6.6530     1.8200    73.0750 ca         1 Q4I       0.172100
     23 OCJ         -7.7370     2.5330    73.3450 os         1 Q4I      -0.346100
     24 NCB         -4.3720     0.4220    72.3180 nb         1 Q4I      -0.673000
     25 CDQ         -4.7130     1.5460    71.6650 ca         1 Q4I       0.260000
     26 CDK         -5.8330     2.3220    72.0220 ca         1 Q4I      -0.061000
     27 CBG         -6.0930     3.5280    71.3380 ca         1 Q4I      -0.119000
     28 CAT         -5.2490     3.9200    70.3340 ca         1 Q4I      -0.079000
     29 CBC         -4.1530     3.1350    69.9310 ca         1 Q4I      -0.166000
     30 CDF         -3.8940     1.9400    70.5600 ca         1 Q4I       0.030000
     31 NCF         -2.9130     1.0280    70.2110 ns         1 Q4I      -0.100000
     32 CCQ         -1.9700     1.1010    69.2490 c          1 Q4I       0.537600
     33 OAI         -1.7460     2.0740    68.5500 o          1 Q4I      -0.618100
     34 CCZ         -1.1810    -0.1720    69.1030 ca         1 Q4I       0.374500
     35 CBK          0.0580    -0.1290    68.4540 ca         1 Q4I      -0.224000
     36 CCV          0.8180    -1.2740    68.4250 ca         1 Q4I       0.207100
     37 OAP          2.0320    -1.3410    67.8840 oh         1 Q4I      -0.517100
     38 NBZ         -1.6980    -1.2590    69.6140 nb         1 Q4I      -0.718000
     39 CDN         -0.9800    -2.3970    69.5720 ca         1 Q4I       0.271000
     40 CDJ          0.3090    -2.4690    69.0050 ca         1 Q4I      -0.058000
     41 CBF          1.0330    -3.6780    69.0520 ca         1 Q4I      -0.094000
     42 CAR          0.4680    -4.7700    69.6510 ca         1 Q4I      -0.082000
     43 CBA         -0.8260    -4.7290    70.2030 ca         1 Q4I      -0.120000
     44 CDD         -1.5590    -3.5670    70.1570 ca         1 Q4I      -0.014000
     45 NCG         -2.8480    -3.4020    70.6350 ns         1 Q4I      -0.102000
     46 CCS         -3.6690    -4.2970    71.2230 c          1 Q4I       0.510600
     47 OAK         -3.3860    -5.4510    71.4910 o          1 Q4I      -0.583100
     48 CDB         -5.0270    -3.7300    71.5340 ca         1 Q4I       0.363500
     49 CBN         -5.8500    -4.4040    72.4470 ca         1 Q4I      -0.220000
     50 CDI         -7.0720    -3.8470    72.7530 ca         1 Q4I       0.196100
     51 OCL         -7.9650    -4.3570    73.5910 os         1 Q4I      -0.343100
     52 CBX         -7.7210    -5.5870    74.2720 c3         1 Q4I       0.169600
     53 CDR         -6.8580    -5.4340    75.5170 c3         1 Q4I      -0.095700
     54 CAA         -6.6990    -6.8080    76.1600 c3         1 Q4I      -0.083600
     55 CAB         -7.4460    -4.4290    76.5010 c3         1 Q4I      -0.083600
     56 NCA         -5.3640    -2.6280    70.9170 nb         1 Q4I      -0.716000
     57 CDP         -6.5660    -2.0800    71.1780 ca         1 Q4I       0.253000
     58 CDM         -7.4600    -2.6260    72.1230 ca         1 Q4I      -0.062000
     59 CBI         -8.6760    -1.9700    72.3960 ca         1 Q4I      -0.112000
     60 CAS         -8.9740    -0.8200    71.7160 ca         1 Q4I      -0.101000
     61 CAZ         -8.1190    -0.2820    70.7400 ca         1 Q4I      -0.156000
     62 CDC         -6.9240    -0.9020    70.4450 ca         1 Q4I       0.026000
     63 NCE         -6.0080    -0.5070    69.4900 ns         1 Q4I      -0.146000
     64 CCO         -6.1480     0.4790    68.5410 c          1 Q4I       0.661100
     65 OAG         -7.1010     1.2430    68.4970 o          1 Q4I      -0.644100
     66 NCC         -5.1410     0.5100    67.6330 ns         1 Q4I      -0.510900
     67 CBS         -5.0100     1.6050    66.6970 c3         1 Q4I       0.112000
     68 CBQ         -4.0800     1.2490    65.5480 c3         1 Q4I      -0.088400
     69 CBR         -3.8470     2.4660    64.6630 c3         1 Q4I      -0.106400
     70 CBU         -2.9700     2.1970    63.4520 c3         1 Q4I       0.162600
     71 OCI         -3.5400     1.2850    62.5240 os         1 Q4I      -0.344100
     72 CCU         -4.4520     1.7190    61.6290 ca         1 Q4I       0.161100
     73 CBJ         -4.8860     0.7760    60.6970 ca         1 Q4I      -0.146000
     74 CAW         -4.9570     3.0180    61.5710 ca         1 Q4I      -0.194000
     75 CAQ         -5.8870     3.3400    60.5930 ca         1 Q4I      -0.071000
     76 CAV         -6.3240     2.4010    59.6710 ca         1 Q4I      -0.147000
     77 CCT         -5.8160     1.1060    59.7200 ca         1 Q4I      -0.069300
     78 CBV         -6.2620     0.0250    58.7590 c3         1 Q4I       0.148300
     79 NCD         -7.0210     0.4920    57.6270 ns         1 Q4I      -0.496900
     80 CCP         -6.4400     1.0710    56.5620 c          1 Q4I       0.601700
     81 OAH         -5.2340     1.2330    56.4650 o          1 Q4I      -0.575100
     82 CCW         -7.3660     1.5220    55.4730 ca         1 Q4I      -0.092600
     83 CAX         -8.5300     0.8340    55.1510 ca         1 Q4I      -0.097000
     84 CBD         -9.3420     1.2690    54.1130 ca         1 Q4I      -0.021000
     85 CCX         -8.9790     2.4030    53.4060 ca         1 Q4I      -0.253500
     86 SDS        -10.0110     2.9990    52.0900 sy         1 Q4I       1.125600
     87 OAL        -11.2750     2.2800    52.1540 o          1 Q4I      -0.545500
     88 OAM        -10.0340     4.4520    52.1220 o          1 Q4I      -0.545500
     89 NAD         -9.0990     2.5910    50.7740 n8         1 Q4I      -1.005100
     90 CBE         -7.8190     3.1040    53.7120 ca         1 Q4I      -0.021000
     91 CAY         -7.0100     2.6520    54.7360 ca         1 Q4I      -0.097000
     92 OAE          4.7320    -6.1960    72.5610 o          1 Q4I      -0.725000
     93 OAN          2.9600    -6.9850    73.6800 o          1 Q4I      -0.725000
     94 CBT         -8.6730     2.0590    74.3130 c3         1 Q4I       0.163600
     95 CBP         -9.8660     2.9850    74.3060 c3         1 Q4I      -0.076400
     96 CBO        -10.6140     3.0090    72.9790 c3         1 Q4I       0.148800
     97 NAC        -11.8010     3.8430    73.0840 n8         1 Q4I      -1.002200
     98 H1           3.4750    -3.9750    73.2040 h1         1 Q4I       0.025200
     99 H2           2.8700    -4.5990    71.6690 h1         1 Q4I       0.025200
    100 H3           2.1900    -2.4010    72.1060 ha         1 Q4I       0.154000
    101 H5          -0.3320    -5.7670    74.5520 ha         1 Q4I       0.141000
    102 H6          -2.6050    -5.7390    75.4780 ha         1 Q4I       0.089000
    103 H7          -4.0950    -3.8180    75.1360 ha         1 Q4I       0.112000
    104 H8          -2.9160    -0.9380    73.0760 hn         1 Q4I       0.220000
    105 H9          -6.8680     0.2460    74.5370 ha         1 Q4I       0.141000
    106 H10         -6.9410     4.1400    71.6080 ha         1 Q4I       0.116000
    107 H11         -5.4310     4.8510    69.8150 ha         1 Q4I       0.099000
    108 H12         -3.5380     3.4760    69.1140 ha         1 Q4I       0.140000
    109 H13         -2.9220     0.1720    70.7530 hn         1 Q4I       0.216000
    110 H14          0.4270     0.7990    68.0380 ha         1 Q4I       0.137000
    111 H15          2.3050    -0.4830    67.5350 ho         1 Q4I       0.468000
    112 H16          2.0250    -3.7410    68.6280 ha         1 Q4I       0.129000
    113 H17          1.0200    -5.6990    69.7030 ha         1 Q4I       0.126000
    114 H18         -1.2280    -5.6170    70.6600 ha         1 Q4I       0.149000
    115 H19         -3.2320    -2.4750    70.4900 hn         1 Q4I       0.194000
    116 H20         -5.4970    -5.3170    72.9000 ha         1 Q4I       0.154000
    117 H21         -8.7120    -5.9450    74.5560 h1         1 Q4I       0.048700
    118 H22         -7.2910    -6.3220    73.5850 h1         1 Q4I       0.048700
    119 H23         -5.8650    -5.0870    75.2180 hc         1 Q4I       0.085700
    120 H24         -6.0610    -6.7490    77.0420 hc         1 Q4I       0.034367
    121 H25         -7.6650    -7.2080    76.4770 hc         1 Q4I       0.034367
    122 H26         -6.2490    -7.5260    75.4720 hc         1 Q4I       0.034367
    123 H27         -6.8190    -4.3600    77.3910 hc         1 Q4I       0.034367
    124 H28         -7.5200    -3.4290    76.0750 hc         1 Q4I       0.034367
    125 H29         -8.4440    -4.7360    76.8230 hc         1 Q4I       0.034367
    126 H30         -9.3640    -2.3670    73.1280 ha         1 Q4I       0.119000
    127 H31         -9.9020    -0.3010    71.9250 ha         1 Q4I       0.096000
    128 H32         -8.4120     0.6170    70.2250 ha         1 Q4I       0.148000
    129 H33         -5.1930    -1.1050    69.4500 hn         1 Q4I       0.185000
    130 H34         -4.3220    -0.0550    67.7920 hn         1 Q4I       0.318500
    131 H35         -4.6400     2.5040    67.2020 h1         1 Q4I       0.049700
    132 H36         -5.9950     1.8500    66.3000 h1         1 Q4I       0.049700
    133 H37         -4.5120     0.4260    64.9720 hc         1 Q4I       0.056200
    134 H38         -3.1190     0.8960    65.9370 hc         1 Q4I       0.056200
    135 H39         -3.3490     3.2450    65.2490 hc         1 Q4I       0.051700
    136 H40         -4.8060     2.8900    64.3550 hc         1 Q4I       0.051700
    137 H41         -2.0360     1.7310    63.7710 h1         1 Q4I       0.057200
    138 H42         -2.7060     3.1360    62.9540 h1         1 Q4I       0.057200
    139 H43         -4.4790    -0.2290    60.7410 ha         1 Q4I       0.126000
    140 H44         -4.6480     3.7850    62.2670 ha         1 Q4I       0.121000
    141 H45         -6.2790     4.3480    60.5550 ha         1 Q4I       0.107000
    142 H46         -7.0530     2.6810    58.9220 ha         1 Q4I       0.104000
    143 H47         -6.8880    -0.6930    59.2910 h1         1 Q4I       0.064700
    144 H48         -5.3910    -0.5300    58.4060 h1         1 Q4I       0.064700
    145 H49         -8.0250     0.5000    57.7110 hn         1 Q4I       0.317500
    146 H50         -8.8130    -0.0640    55.6860 ha         1 Q4I       0.132000
    147 H51        -10.2410     0.7210    53.8670 ha         1 Q4I       0.138000
    148 H52         -9.1350     1.5990    50.5590 hn         1 Q4I       0.473500
    149 H53         -9.3510     3.1420    49.9590 hn         1 Q4I       0.473500
    150 H54         -7.5400     3.9900    53.1570 ha         1 Q4I       0.138000
    151 H55         -6.1010     3.1880    54.9740 ha         1 Q4I       0.132000
    152 H57         -8.9770     1.0380    74.0620 h1         1 Q4I       0.043200
    153 H58         -8.2040     2.0380    75.3010 h1         1 Q4I       0.043200
    154 H59         -9.5620     3.9980    74.5830 hc         1 Q4I       0.051700
    155 H60        -10.5400     2.6360    75.0950 hc         1 Q4I       0.051700
    156 H61        -10.8280     1.9730    72.6740 h1         1 Q4I       0.040200
    157 H62         -9.9730     3.4320    72.2030 h1         1 Q4I       0.040200
    158 H63        -12.2510     3.9070    72.1800 hn         1 Q4I       0.386500
    159 H64        -12.4740     3.3950    73.6940 hn         1 Q4I       0.386500
@<TRIPOS>BOND
     1     1     2 1   
     2     1    92 1   
     3     1    93 1   
     4     2     3 1   
     5     2    98 1   
     6     2    99 1   
     7     3     4 1   
     8     4     5 ar  
     9     4    12 ar  
    10     5     6 ar  
    11     5   100 1   
    12     6     7 1   
    13     6    10 ar  
    14     7     8 1   
    15     7     9 1   
    16    10    11 ar  
    17    11    12 ar  
    18    11    16 ar  
    19    12    13 ar  
    20    13    14 ar  
    21    13   101 1   
    22    14    15 ar  
    23    14   102 1   
    24    15    16 ar  
    25    15   103 1   
    26    16    17 1   
    27    17    18 1   
    28    17   104 1   
    29    18    19 2   
    30    18    20 1   
    31    20    21 ar  
    32    20    24 ar  
    33    21    22 ar  
    34    21   105 1   
    35    22    23 1   
    36    22    26 ar  
    37    23    94 1   
    38    24    25 ar  
    39    25    26 ar  
    40    25    30 ar  
    41    26    27 ar  
    42    27    28 ar  
    43    27   106 1   
    44    28    29 ar  
    45    28   107 1   
    46    29    30 ar  
    47    29   108 1   
    48    30    31 1   
    49    31    32 1   
    50    31   109 1   
    51    32    33 2   
    52    32    34 1   
    53    34    35 ar  
    54    34    38 ar  
    55    35    36 ar  
    56    35   110 1   
    57    36    37 1   
    58    36    40 ar  
    59    37   111 1   
    60    38    39 ar  
    61    39    40 ar  
    62    39    44 ar  
    63    40    41 ar  
    64    41    42 ar  
    65    41   112 1   
    66    42    43 ar  
    67    42   113 1   
    68    43    44 ar  
    69    43   114 1   
    70    44    45 1   
    71    45    46 1   
    72    45   115 1   
    73    46    47 2   
    74    46    48 1   
    75    48    49 ar  
    76    48    56 ar  
    77    49    50 ar  
    78    49   116 1   
    79    50    51 1   
    80    50    58 ar  
    81    51    52 1   
    82    52    53 1   
    83    52   117 1   
    84    52   118 1   
    85    53    54 1   
    86    53    55 1   
    87    53   119 1   
    88    54   120 1   
    89    54   121 1   
    90    54   122 1   
    91    55   123 1   
    92    55   124 1   
    93    55   125 1   
    94    56    57 ar  
    95    57    58 ar  
    96    57    62 ar  
    97    58    59 ar  
    98    59    60 ar  
    99    59   126 1   
   100    60    61 ar  
   101    60   127 1   
   102    61    62 ar  
   103    61   128 1   
   104    62    63 1   
   105    63    64 1   
   106    63   129 1   
   107    64    65 2   
   108    64    66 1   
   109    66    67 1   
   110    66   130 1   
   111    67    68 1   
   112    67   131 1   
   113    67   132 1   
   114    68    69 1   
   115    68   133 1   
   116    68   134 1   
   117    69    70 1   
   118    69   135 1   
   119    69   136 1   
   120    70    71 1   
   121    70   137 1   
   122    70   138 1   
   123    71    72 1   
   124    72    73 ar  
   125    72    74 ar  
   126    73    77 ar  
   127    73   139 1   
   128    74    75 ar  
   129    74   140 1   
   130    75    76 ar  
   131    75   141 1   
   132    76    77 ar  
   133    76   142 1   
   134    77    78 1   
   135    78    79 1   
   136    78   143 1   
   137    78   144 1   
   138    79    80 1   
   139    79   145 1   
   140    80    81 2   
   141    80    82 1   
   142    82    83 ar  
   143    82    91 ar  
   144    83    84 ar  
   145    83   146 1   
   146    84    85 ar  
   147    84   147 1   
   148    85    86 1   
   149    85    90 ar  
   150    86    87 2   
   151    86    88 2   
   152    86    89 1   
   153    89   148 1   
   154    89   149 1   
   155    90    91 ar  
   156    90   150 1   
   157    91   151 1   
   158    94    95 1   
   159    94   152 1   
   160    94   153 1   
   161    95    96 1   
   162    95   154 1   
   163    95   155 1   
   164    96    97 1   
   165    96   156 1   
   166    96   157 1   
   167    97   158 1   
   168    97   159 1   
@<TRIPOS>SUBSTRUCTURE
     1 Q4I         1 TEMP              0 ****  ****    0 ROOT
