@<TRIPOS>MOLECULE
Q4I
  159   168     1     0     0
SMALL
No Charge or Current Charge


@<TRIPOS>ATOM
      1 CCM          2.5440    -6.7630    68.7430 c          1 Q4I       0.728000
      2 CBW          2.0580    -5.3400    69.1530 c3         1 Q4I       0.006600
      3 OCK          0.9420    -5.3600    70.0770 os         1 Q4I      -0.307100
      4 CDH          0.3430    -4.2040    70.5440 ca         1 Q4I       0.179100
      5 CBL          0.8330    -2.9290    70.2130 ca         1 Q4I      -0.256000
      6 CCY          0.1950    -1.7740    70.7110 ca         1 Q4I       0.339500
      7 CCN          0.7780    -0.3600    70.3810 c          1 Q4I       0.607500
      8 OAF          1.8110    -0.2830    69.7210 o          1 Q4I      -0.710500
      9 OAO          0.2190     0.6470    70.8100 o          1 Q4I      -0.710500
     10 NBY         -0.9210    -1.8890    71.4920 nb         1 Q4I      -0.727000
     11 CDO         -1.4150    -3.1080    71.8140 ca         1 Q4I       0.261000
     12 CDL         -0.7890    -4.2990    71.3760 ca         1 Q4I      -0.108000
     13 CBH         -1.3080    -5.5540    71.7610 ca         1 Q4I      -0.051000
     14 CAU         -2.4430    -5.6260    72.5810 ca         1 Q4I      -0.154000
     15 CBB         -3.0890    -4.4530    72.9950 ca         1 Q4I      -0.148000
     16 CDE         -2.5900    -3.1950    72.6030 ca         1 Q4I      -0.049000
     17 NCH         -3.2680    -1.9810    72.8920 ns         1 Q4I      -0.098000
     18 CCR         -4.3520    -1.6420    73.6910 c          1 Q4I       0.499600
     19 OAJ         -4.8790    -2.4100    74.4960 o          1 Q4I      -0.633100
     20 CDA         -4.8180    -0.2010    73.4590 ca         1 Q4I       0.343500
     21 CBM         -5.7980     0.3940    74.2720 ca         1 Q4I      -0.227000
     22 CDG         -6.1790     1.7290    74.0310 ca         1 Q4I       0.172100
     23 OCJ         -7.1420     2.3620    74.7950 os         1 Q4I      -0.346100
     24 NCB         -4.2600     0.4800    72.4250 nb         1 Q4I      -0.673000
     25 CDQ         -4.6210     1.7560    72.1660 ca         1 Q4I       0.260000
     26 CDK         -5.5700     2.4300    72.9670 ca         1 Q4I      -0.061000
     27 CBG         -5.9030     3.7710    72.6770 ca         1 Q4I      -0.119000
     28 CAT         -5.3010     4.4320    71.5940 ca         1 Q4I      -0.079000
     29 CBC         -4.3830     3.7560    70.7740 ca         1 Q4I      -0.166000
     30 CDF         -4.0500     2.4140    71.0500 ca         1 Q4I       0.030000
     31 NCF         -3.2260     1.6280    70.1990 ns         1 Q4I      -0.100000
     32 CCQ         -2.4290     1.9070    69.1030 c          1 Q4I       0.537600
     33 OAI         -2.1660     3.0480    68.7190 o          1 Q4I      -0.618100
     34 CCZ         -1.9270     0.6340    68.4060 ca         1 Q4I       0.374500
     35 CBK         -0.8570     0.6900    67.4960 ca         1 Q4I      -0.224000
     36 CCV         -0.3710    -0.4940    66.9330 ca         1 Q4I       0.207100
     37 OAP          0.6880    -0.4390    66.0690 oh         1 Q4I      -0.517100
     38 NBZ         -2.5460    -0.5500    68.6900 nb         1 Q4I      -0.718000
     39 CDN         -2.0860    -1.7100    68.1560 ca         1 Q4I       0.271000
     40 CDJ         -0.9750    -1.7220    67.2760 ca         1 Q4I      -0.058000
     41 CBF         -0.4910    -2.9440    66.7620 ca         1 Q4I      -0.094000
     42 CAR         -1.1070    -4.1510    67.1180 ca         1 Q4I      -0.082000
     43 CBA         -2.2170    -4.1510    67.9730 ca         1 Q4I      -0.120000
     44 CDD         -2.7180    -2.9370    68.4930 ca         1 Q4I      -0.014000
     45 NCG         -3.8580    -2.8820    69.3470 ns         1 Q4I      -0.102000
     46 CCS         -4.6450    -3.8520    69.9610 c          1 Q4I       0.510600
     47 OAK         -4.4410    -5.0610    69.8620 o          1 Q4I      -0.583100
     48 CDB         -5.8070    -3.2680    70.7750 ca         1 Q4I       0.363500
     49 CBN         -6.5230    -4.0690    71.6830 ca         1 Q4I      -0.220000
     50 CDI         -7.5740    -3.5040    72.4310 ca         1 Q4I       0.196100
     51 OCL         -8.3450    -4.2480    73.3120 os         1 Q4I      -0.343100
     52 CBX         -8.0270    -5.5940    73.7210 c3         1 Q4I       0.169600
     53 CDR         -6.8750    -5.5550    74.7580 c3         1 Q4I      -0.095700
     54 CAA         -6.3540    -6.9760    75.0690 c3         1 Q4I      -0.083600
     55 CAB         -7.2770    -4.8080    76.0530 c3         1 Q4I      -0.083600
     56 NCA         -6.1410    -1.9640    70.5770 nb         1 Q4I      -0.716000
     57 CDP         -7.1590    -1.4030    71.2750 ca         1 Q4I       0.253000
     58 CDM         -7.8870    -2.1420    72.2370 ca         1 Q4I      -0.062000
     59 CBI         -8.9190    -1.5190    72.9730 ca         1 Q4I      -0.112000
     60 CAS         -9.2340    -0.1720    72.7470 ca         1 Q4I      -0.101000
     61 CAZ         -8.5440     0.5580    71.7700 ca         1 Q4I      -0.156000
     62 CDC         -7.5170    -0.0540    71.0200 ca         1 Q4I       0.026000
     63 NCE         -6.8230     0.6130    69.9740 ns         1 Q4I      -0.146000
     64 CCO         -6.9980     1.8360    69.3590 c          1 Q4I       0.661100
     65 OAG         -7.8430     2.6670    69.6560 o          1 Q4I      -0.644100
     66 NCC         -6.1090     2.0260    68.3280 ns         1 Q4I      -0.510900
     67 CBS         -6.0520     3.2300    67.5020 c3         1 Q4I       0.112000
     68 CBQ         -5.1030     3.0440    66.3040 c3         1 Q4I      -0.088400
     69 CBR         -4.9850     4.3130    65.4260 c3         1 Q4I      -0.106400
     70 CBU         -4.0030     4.1630    64.2370 c3         1 Q4I       0.162600
     71 OCI         -4.4370     3.0820    63.3850 os         1 Q4I      -0.344100
     72 CCU         -5.5550     3.1540    62.5760 ca         1 Q4I       0.161100
     73 CBJ         -6.0270     1.9590    62.0080 ca         1 Q4I      -0.146000
     74 CAW         -6.2180     4.3680    62.2910 ca         1 Q4I      -0.194000
     75 CAQ         -7.3480     4.3720    61.4560 ca         1 Q4I      -0.071000
     76 CAV         -7.8190     3.1700    60.9010 ca         1 Q4I      -0.147000
     77 CCT         -7.1610     1.9560    61.1740 ca         1 Q4I      -0.069300
     78 CBV         -7.6680     0.6550    60.5680 c3         1 Q4I       0.148300
     79 NCD         -7.0940     0.4210    59.2420 ns         1 Q4I      -0.496900
     80 CCP         -5.9700    -0.3390    58.9940 c          1 Q4I       0.601700
     81 OAH         -5.3750    -0.9050    59.9020 o          1 Q4I      -0.575100
     82 CCW         -5.5160    -0.4360    57.5480 ca         1 Q4I      -0.092600
     83 CAX         -6.1960     0.2220    56.4930 ca         1 Q4I      -0.097000
     84 CBD         -5.7470     0.1060    55.1650 ca         1 Q4I      -0.021000
     85 CCX         -4.6090    -0.6670    54.8650 ca         1 Q4I      -0.253500
     86 SDS         -4.0370    -0.8150    53.1660 sy         1 Q4I       1.125600
     87 OAL         -4.5480     0.2790    52.3440 o          1 Q4I      -0.545500
     88 OAM         -2.6390    -1.2380    53.1190 o          1 Q4I      -0.545500
     89 NAD         -4.8470    -2.1180    52.6140 n8         1 Q4I      -1.005100
     90 CBE         -3.9250    -1.3270    55.9030 ca         1 Q4I      -0.021000
     91 CAY         -4.3750    -1.2100    57.2300 ca         1 Q4I      -0.097000
     92 OAE          3.4860    -6.8350    67.9640 o          1 Q4I      -0.725000
     93 OAN          1.9860    -7.7520    69.2030 o          1 Q4I      -0.725000
     94 CBT         -7.8790     1.6800    75.8240 c3         1 Q4I       0.163600
     95 CBP         -8.9160     2.6630    76.4020 c3         1 Q4I      -0.076400
     96 CBO         -9.9600     3.1280    75.3650 c3         1 Q4I       0.148800
     97 NAC        -10.9570     4.0360    75.9700 n8         1 Q4I      -1.002200
     98 H1           2.9120    -4.8180    69.6030 h1         1 Q4I       0.025200
     99 H2           1.7770    -4.8100    68.2340 h1         1 Q4I       0.025200
    100 H3           1.7070    -2.8120    69.5850 ha         1 Q4I       0.154000
    101 H5          -0.8340    -6.4760    71.4330 ha         1 Q4I       0.141000
    102 H6          -2.8370    -6.5960    72.8770 ha         1 Q4I       0.089000
    103 H7          -3.9830    -4.5360    73.6000 ha         1 Q4I       0.112000
    104 H8          -2.9190    -1.1990    72.3470 hn         1 Q4I       0.220000
    105 H9          -6.2330    -0.1880    75.0760 ha         1 Q4I       0.141000
    106 H10         -6.6290     4.3060    73.2850 ha         1 Q4I       0.116000
    107 H11         -5.5660     5.4640    71.3750 ha         1 Q4I       0.099000
    108 H12         -3.9620     4.2750    69.9180 ha         1 Q4I       0.140000
    109 H13         -3.2690     0.6380    70.4150 hn         1 Q4I       0.216000
    110 H14         -0.3950     1.6460    67.2690 ha         1 Q4I       0.137000
    111 H15          0.9990     0.4880    66.0160 ho         1 Q4I       0.468000
    112 H16          0.3650    -2.9670    66.0920 ha         1 Q4I       0.129000
    113 H17         -0.7260    -5.0910    66.7220 ha         1 Q4I       0.126000
    114 H18         -2.6770    -5.1040    68.2160 ha         1 Q4I       0.149000
    115 H19         -4.1580    -1.9350    69.5470 hn         1 Q4I       0.194000
    116 H20         -6.2420    -5.1100    71.7910 ha         1 Q4I       0.154000
    117 H21         -8.9050    -6.0530    74.1920 h1         1 Q4I       0.048700
    118 H22         -7.7620    -6.2200    72.8600 h1         1 Q4I       0.048700
    119 H23         -6.0440    -5.0010    74.3130 hc         1 Q4I       0.085700
    120 H24         -5.5050    -6.9350    75.7630 hc         1 Q4I       0.034367
    121 H25         -7.1410    -7.5900    75.5250 hc         1 Q4I       0.034367
    122 H26         -6.0170    -7.4740    74.1520 hc         1 Q4I       0.034367
    123 H27         -6.4360    -4.7760    76.7570 hc         1 Q4I       0.034367
    124 H28         -7.5680    -3.7740    75.8350 hc         1 Q4I       0.034367
    125 H29         -8.1200    -5.3070    76.5470 hc         1 Q4I       0.034367
    126 H30         -9.4800    -2.0720    73.7230 ha         1 Q4I       0.119000
    127 H31        -10.0270     0.3020    73.3210 ha         1 Q4I       0.096000
    128 H32         -8.8200     1.5950    71.6080 ha         1 Q4I       0.148000
    129 H33         -6.0770     0.0510    69.5880 hn         1 Q4I       0.185000
    130 H34         -5.4700     1.2700    68.1200 hn         1 Q4I       0.318500
    131 H35         -5.7090     4.0690    68.1220 h1         1 Q4I       0.049700
    132 H36         -7.0620     3.4610    67.1370 h1         1 Q4I       0.049700
    133 H37         -5.4630     2.2070    65.6930 hc         1 Q4I       0.056200
    134 H38         -4.1070     2.7690    66.6710 hc         1 Q4I       0.056200
    135 H39         -4.6410     5.1460    66.0510 hc         1 Q4I       0.051700
    136 H40         -5.9780     4.5930    65.0570 hc         1 Q4I       0.051700
    137 H41         -3.0050     3.9380    64.6370 h1         1 Q4I       0.057200
    138 H42         -3.9220     5.1050    63.6810 h1         1 Q4I       0.057200
    139 H43         -5.5070     1.0290    62.2220 ha         1 Q4I       0.126000
    140 H44         -5.8710     5.3120    62.7000 ha         1 Q4I       0.121000
    141 H45         -7.8590     5.3070    61.2370 ha         1 Q4I       0.107000
    142 H46         -8.6940     3.1840    60.2560 ha         1 Q4I       0.104000
    143 H47         -8.7610     0.6970    60.4740 h1         1 Q4I       0.064700
    144 H48         -7.4290    -0.1860    61.2330 h1         1 Q4I       0.064700
    145 H49         -7.5330     0.8670    58.4480 hn         1 Q4I       0.317500
    146 H50         -7.0780     0.8290    56.6810 ha         1 Q4I       0.132000
    147 H51         -6.2890     0.6200    54.3730 ha         1 Q4I       0.138000
    148 H52         -5.2520    -1.7340    51.7630 hn         1 Q4I       0.473500
    149 H53         -4.0760    -2.6730    52.2510 hn         1 Q4I       0.473500
    150 H54         -3.0460    -1.9320    55.6900 ha         1 Q4I       0.138000
    151 H55         -3.8300    -1.7290    58.0150 ha         1 Q4I       0.132000
    152 H57         -8.3970     0.8010    75.4180 h1         1 Q4I       0.043200
    153 H58         -7.2060     1.3490    76.6260 h1         1 Q4I       0.043200
    154 H59         -8.3920     3.5340    76.8150 hc         1 Q4I       0.051700
    155 H60         -9.4290     2.1730    77.2380 hc         1 Q4I       0.051700
    156 H61        -10.4820     2.2540    74.9490 h1         1 Q4I       0.040200
    157 H62         -9.4580     3.6550    74.5410 h1         1 Q4I       0.040200
    158 H63        -11.6620     4.2780    75.2630 hn         1 Q4I       0.386500
    159 H64        -11.4930     3.5210    76.6790 hn         1 Q4I       0.386500
@<TRIPOS>BOND
     1     1     2 1   
     2     1    92 1   
     3     1    93 1   
     4     2     3 1   
     5     2    98 1   
     6     2    99 1   
     7     3     4 1   
     8     4     5 ar  
     9     4    12 ar  
    10     5     6 ar  
    11     5   100 1   
    12     6     7 1   
    13     6    10 ar  
    14     7     8 1   
    15     7     9 1   
    16    10    11 ar  
    17    11    12 ar  
    18    11    16 ar  
    19    12    13 ar  
    20    13    14 ar  
    21    13   101 1   
    22    14    15 ar  
    23    14   102 1   
    24    15    16 ar  
    25    15   103 1   
    26    16    17 1   
    27    17    18 1   
    28    17   104 1   
    29    18    19 2   
    30    18    20 1   
    31    20    21 ar  
    32    20    24 ar  
    33    21    22 ar  
    34    21   105 1   
    35    22    23 1   
    36    22    26 ar  
    37    23    94 1   
    38    24    25 ar  
    39    25    26 ar  
    40    25    30 ar  
    41    26    27 ar  
    42    27    28 ar  
    43    27   106 1   
    44    28    29 ar  
    45    28   107 1   
    46    29    30 ar  
    47    29   108 1   
    48    30    31 1   
    49    31    32 1   
    50    31   109 1   
    51    32    33 2   
    52    32    34 1   
    53    34    35 ar  
    54    34    38 ar  
    55    35    36 ar  
    56    35   110 1   
    57    36    37 1   
    58    36    40 ar  
    59    37   111 1   
    60    38    39 ar  
    61    39    40 ar  
    62    39    44 ar  
    63    40    41 ar  
    64    41    42 ar  
    65    41   112 1   
    66    42    43 ar  
    67    42   113 1   
    68    43    44 ar  
    69    43   114 1   
    70    44    45 1   
    71    45    46 1   
    72    45   115 1   
    73    46    47 2   
    74    46    48 1   
    75    48    49 ar  
    76    48    56 ar  
    77    49    50 ar  
    78    49   116 1   
    79    50    51 1   
    80    50    58 ar  
    81    51    52 1   
    82    52    53 1   
    83    52   117 1   
    84    52   118 1   
    85    53    54 1   
    86    53    55 1   
    87    53   119 1   
    88    54   120 1   
    89    54   121 1   
    90    54   122 1   
    91    55   123 1   
    92    55   124 1   
    93    55   125 1   
    94    56    57 ar  
    95    57    58 ar  
    96    57    62 ar  
    97    58    59 ar  
    98    59    60 ar  
    99    59   126 1   
   100    60    61 ar  
   101    60   127 1   
   102    61    62 ar  
   103    61   128 1   
   104    62    63 1   
   105    63    64 1   
   106    63   129 1   
   107    64    65 2   
   108    64    66 1   
   109    66    67 1   
   110    66   130 1   
   111    67    68 1   
   112    67   131 1   
   113    67   132 1   
   114    68    69 1   
   115    68   133 1   
   116    68   134 1   
   117    69    70 1   
   118    69   135 1   
   119    69   136 1   
   120    70    71 1   
   121    70   137 1   
   122    70   138 1   
   123    71    72 1   
   124    72    73 ar  
   125    72    74 ar  
   126    73    77 ar  
   127    73   139 1   
   128    74    75 ar  
   129    74   140 1   
   130    75    76 ar  
   131    75   141 1   
   132    76    77 ar  
   133    76   142 1   
   134    77    78 1   
   135    78    79 1   
   136    78   143 1   
   137    78   144 1   
   138    79    80 1   
   139    79   145 1   
   140    80    81 2   
   141    80    82 1   
   142    82    83 ar  
   143    82    91 ar  
   144    83    84 ar  
   145    83   146 1   
   146    84    85 ar  
   147    84   147 1   
   148    85    86 1   
   149    85    90 ar  
   150    86    87 2   
   151    86    88 2   
   152    86    89 1   
   153    89   148 1   
   154    89   149 1   
   155    90    91 ar  
   156    90   150 1   
   157    91   151 1   
   158    94    95 1   
   159    94   152 1   
   160    94   153 1   
   161    95    96 1   
   162    95   154 1   
   163    95   155 1   
   164    96    97 1   
   165    96   156 1   
   166    96   157 1   
   167    97   158 1   
   168    97   159 1   
@<TRIPOS>SUBSTRUCTURE
     1 Q4I         1 TEMP              0 ****  ****    0 ROOT
