@<TRIPOS>MOLECULE
Q4J
   71    75     1     0     0
SMALL
No Charge or Current Charge


@<TRIPOS>ATOM
      1 CAA          5.3270     4.4520     0.7890 cc         1 Q4J      -0.218000
      2 CBA         13.1430     1.4450    -7.2020 c3         1 Q4J      -0.104100
      3 CAB          5.3560     4.9550     2.0530 cd         1 Q4J      -0.130300
      4 CBB         11.1260     2.1980    -9.4640 ca         1 Q4J      -0.053000
      5 CBC         10.7520     2.4710   -10.7890 ca         1 Q4J      -0.147000
      6 CBD         11.2890     3.5860   -11.4770 ca         1 Q4J       0.462500
      7 CBM          6.5230     5.3210     2.9310 c3         1 Q4J      -0.031800
      8 NAC          4.0050     5.0740     2.4180 na         1 Q4J      -0.002200
      9 NAD          3.1410     4.6510     1.4000 nd         1 Q4J      -0.584800
     10 CAE          3.9760     4.2990     0.4610 cc         1 Q4J       0.507900
     11 NAF          3.4850     3.8130    -0.7100 nu         1 Q4J      -0.889800
     12 C6           4.0240     3.4150    -1.9250 ca         1 Q4J       0.398900
     13 N1           5.3350     3.5940    -2.1530 nb         1 Q4J      -0.253000
     14 C5           3.1870     2.8490    -2.8930 ca         1 Q4J      -0.290000
     15 C4           3.7650     2.4650    -4.1140 ca         1 Q4J       0.158300
     16 CAM          2.9430     1.8350    -5.2220 c3         1 Q4J      -0.149400
     17 N3           5.0810     2.6360    -4.3470 nb         1 Q4J      -0.225000
     18 C2           5.8060     3.1960    -3.3530 ca         1 Q4J       0.181300
     19 CAN          7.3100     3.3930    -3.6000 c6         1 Q4J      -0.099000
     20 CAS          8.0920     2.0450    -3.5640 c6         1 Q4J      -0.061900
     21 CAR          9.4160     2.0820    -4.3860 c6         1 Q4J      -0.076400
     22 CAO          7.6150     4.1600    -4.9120 c6         1 Q4J      -0.061900
     23 CAP          9.1330     4.4920    -5.0600 c6         1 Q4J      -0.076400
     24 CAQ         10.1230     3.4750    -4.3480 c6         1 Q4J       0.108000
     25 OAU         10.3400     3.8130    -2.9370 os         1 Q4J      -0.465000
     26 CAV         10.8380     5.1220    -2.5790 c3         1 Q4J       0.140900
     27 CAT         11.4830     3.3460    -5.1520 c          1 Q4J       0.571100
     28 OAX         12.5830     3.5130    -4.6390 o          1 Q4J      -0.599100
     29 NAW         11.3760     3.0270    -6.4950 ns         1 Q4J      -0.505900
     30 CAY         12.5020     2.8330    -7.4030 c3         1 Q4J       0.173000
     31 CAZ         12.0480     3.0550    -8.8390 ca         1 Q4J      -0.162300
     32 CBF         12.5440     4.1430    -9.5760 ca         1 Q4J       0.392900
     33 NBE         12.1840     4.4030   -10.8530 nb         1 Q4J      -0.703000
     34 NBG         10.8690     3.7950   -12.8110 na         1 Q4J       0.121300
     35 NBH          9.5570     3.5470   -13.2070 nc         1 Q4J      -0.506800
     36 CBI          9.5920     3.9160   -14.4790 cd         1 Q4J       0.230900
     37 CBJ         10.8690     4.3910   -14.8590 cd         1 Q4J       0.039000
     38 FBL         11.1700     4.8370   -16.0920 f          1 Q4J      -0.152000
     39 CBK         11.7060     4.3290   -13.7880 cc         1 Q4J      -0.160000
     40 H1           6.1760     4.2100     0.1650 ha         1 Q4J       0.169000
     41 H3          12.4140     0.6430    -7.3640 hc         1 Q4J       0.046367
     42 H4          13.9740     1.3030    -7.9030 hc         1 Q4J       0.046367
     43 H5          10.7070     1.3410    -8.9420 ha         1 Q4J       0.122000
     44 H6          10.0470     1.8130   -11.2870 ha         1 Q4J       0.154000
     45 H7           6.4870     6.3800     3.2150 hc         1 Q4J       0.051367
     46 H8           6.5270     4.7250     3.8520 hc         1 Q4J       0.051367
     47 H9           7.4760     5.1460     2.4170 hc         1 Q4J       0.051367
     48 H10          3.6520     5.4200     3.3100 hn         1 Q4J       0.371000
     49 H11          2.4750     3.7300    -0.6600 hn         1 Q4J       0.512000
     50 H12          2.1260     2.7060    -2.7090 ha         1 Q4J       0.130000
     51 H13          3.0320     0.7430    -5.1990 hc         1 Q4J       0.055033
     52 H14          1.8810     2.0880    -5.1240 hc         1 Q4J       0.055033
     53 H15          3.2740     2.1790    -6.2090 hc         1 Q4J       0.055033
     54 H16          7.6980     4.0170    -2.7810 hc         1 Q4J       0.075700
     55 H17          7.4670     1.2270    -3.9490 hc         1 Q4J       0.053700
     56 H18          8.3100     1.7870    -2.5190 hc         1 Q4J       0.053700
     57 H19          9.1930     1.8020    -5.4250 hc         1 Q4J       0.058700
     58 H20         10.0980     1.3060    -4.0120 hc         1 Q4J       0.058700
     59 H21          7.0300     5.0900    -4.9530 hc         1 Q4J       0.053700
     60 H22          7.2900     3.5590    -5.7730 hc         1 Q4J       0.053700
     61 H23          9.3100     5.5140    -4.7040 hc         1 Q4J       0.058700
     62 H24          9.3450     4.5550    -6.1350 hc         1 Q4J       0.058700
     63 H25         11.1480     5.1310    -1.5270 h1         1 Q4J       0.033700
     64 H26         11.7030     5.4100    -3.1880 h1         1 Q4J       0.033700
     65 H27         10.0590     5.8860    -2.6960 h1         1 Q4J       0.033700
     66 H28         10.4420     2.9040    -6.8650 hn         1 Q4J       0.331500
     67 H29         13.2630     3.5880    -7.1620 h1         1 Q4J       0.072700
     68 H30         13.2600     4.8340    -9.1320 h4         1 Q4J       0.031100
     69 H31          8.6990     3.8370   -15.0860 h4         1 Q4J       0.054100
     70 H32         12.7450     4.5950   -13.6380 h4         1 Q4J       0.190000
     71 H2          13.5390     1.3440    -6.1840 hc         1 Q4J       0.046367
@<TRIPOS>BOND
     1     1     3 2   
     2     1    10 1   
     3     1    40 1   
     4     2    30 1   
     5     2    41 1   
     6     2    42 1   
     7     2    71 1   
     8     3     7 1   
     9     3     8 1   
    10     4     5 ar  
    11     4    31 ar  
    12     4    43 1   
    13     5     6 ar  
    14     5    44 1   
    15     6    33 ar  
    16     6    34 1   
    17     7    45 1   
    18     7    46 1   
    19     7    47 1   
    20     8     9 1   
    21     8    48 1   
    22     9    10 2   
    23    10    11 1   
    24    11    12 1   
    25    11    49 1   
    26    12    13 ar  
    27    12    14 ar  
    28    13    18 ar  
    29    14    15 ar  
    30    14    50 1   
    31    15    16 1   
    32    15    17 ar  
    33    16    51 1   
    34    16    52 1   
    35    16    53 1   
    36    17    18 ar  
    37    18    19 1   
    38    19    20 1   
    39    19    22 1   
    40    19    54 1   
    41    20    21 1   
    42    20    55 1   
    43    20    56 1   
    44    21    24 1   
    45    21    57 1   
    46    21    58 1   
    47    22    23 1   
    48    22    59 1   
    49    22    60 1   
    50    23    24 1   
    51    23    61 1   
    52    23    62 1   
    53    24    25 1   
    54    24    27 1   
    55    25    26 1   
    56    26    63 1   
    57    26    64 1   
    58    26    65 1   
    59    27    28 2   
    60    27    29 1   
    61    29    30 1   
    62    29    66 1   
    63    30    31 1   
    64    30    67 1   
    65    31    32 ar  
    66    32    33 ar  
    67    32    68 1   
    68    34    35 1   
    69    34    39 1   
    70    35    36 2   
    71    36    37 1   
    72    36    69 1   
    73    37    38 1   
    74    37    39 2   
    75    39    70 1   
@<TRIPOS>SUBSTRUCTURE
     1 Q4J         1 TEMP              0 ****  ****    0 ROOT
