@<TRIPOS>MOLECULE
Q4J
   71    75     1     0     0
SMALL
bcc


@<TRIPOS>ATOM
      1 CAA          5.8120     3.5950     0.5440 cc         1 Q4J      -0.301300
      2 CBA         13.8280     2.4320    -6.4460 c3         1 Q4J      -0.104100
      3 CAB          6.0560     3.5570     1.9030 cd         1 Q4J      -0.079600
      4 CBB         11.6390     2.0070    -8.6500 ca         1 Q4J      -0.071000
      5 CBC         11.2390     1.7900    -9.9550 ca         1 Q4J      -0.230300
      6 CBD         11.5500     2.7750   -10.8870 ca         1 Q4J       0.527800
      7 CBM          7.3360     3.5280     2.6590 c3         1 Q4J      -0.031800
      8 NAC          4.8560     3.5790     2.4980 na         1 Q4J      -0.002600
      9 NAD          3.8350     3.6300     1.6390 nd         1 Q4J      -0.584800
     10 CAE          4.4060     3.6410     0.4480 cc         1 Q4J       0.573200
     11 NAF          3.5670     3.6870    -0.6540 nu         1 Q4J      -0.834600
     12 C6           3.8960     3.7420    -1.9670 ca         1 Q4J       0.727200
     13 N1           5.1770     3.7370    -2.3180 nb         1 Q4J      -0.779000
     14 C5           2.8790     3.7980    -2.9340 ca         1 Q4J      -0.438600
     15 C4           3.2720     3.8560    -4.2510 ca         1 Q4J       0.486600
     16 CAM          2.2790     3.9150    -5.3660 c3         1 Q4J      -0.149400
     17 N3           4.5690     3.8570    -4.5960 nb         1 Q4J      -0.751000
     18 C2           5.4540     3.7950    -3.6180 ca         1 Q4J       0.707300
     19 CAN          6.9130     3.8360    -3.9880 c6         1 Q4J      -0.099000
     20 CAS          7.2710     2.8330    -5.0950 c6         1 Q4J      -0.061900
     21 CAR          8.4840     3.2680    -5.9280 c6         1 Q4J      -0.076400
     22 CAO          7.3070     5.2500    -4.4240 c6         1 Q4J      -0.061900
     23 CAP          8.8180     5.3850    -4.6540 c6         1 Q4J      -0.076400
     24 CAQ          9.4880     4.0770    -5.1020 c6         1 Q4J       0.084800
     25 OAU          9.8690     3.2250    -4.0380 os         1 Q4J      -0.418600
     26 CAV         10.6210     3.7930    -2.9870 c3         1 Q4J       0.117700
     27 CAT         10.6980     4.3560    -6.0170 c          1 Q4J       0.638100
     28 OAX         10.7350     5.3110    -6.7780 o          1 Q4J      -0.599100
     29 NAW         11.6670     3.4290    -5.9770 ns         1 Q4J      -0.572900
     30 CAY         12.7850     3.4440    -6.9000 c3         1 Q4J       0.173000
     31 CAZ         12.3230     3.1710    -8.3120 ca         1 Q4J      -0.227600
     32 CBF         12.5630     4.0770    -9.3320 ca         1 Q4J       0.458200
     33 NBE         12.1910     3.8850   -10.5910 nb         1 Q4J      -0.703000
     34 NBG         11.1820     2.6300   -12.2360 na         1 Q4J       0.070600
     35 NBH         10.5250     1.5490   -12.6480 nc         1 Q4J      -0.506800
     36 CBI         10.3340     1.7100   -13.9400 cd         1 Q4J       0.296200
     37 CBJ         10.8900     2.9310   -14.3480 cd         1 Q4J      -0.061400
     38 FBL         10.8880     3.4250   -15.5830 f          1 Q4J      -0.116900
     39 CBK         11.4320     3.5120   -13.2390 cc         1 Q4J      -0.127300
     40 H1           6.5350     3.5890    -0.2490 ha         1 Q4J       0.187000
     41 H3          13.4200     1.4200    -6.4260 hc         1 Q4J       0.046367
     42 H4          14.6770     2.4360    -7.1270 hc         1 Q4J       0.046367
     43 H5          11.4140     1.2620    -7.8970 ha         1 Q4J       0.140000
     44 H6          10.7090     0.8940   -10.2380 ha         1 Q4J       0.172000
     45 H7           7.6560     4.5340     2.9360 hc         1 Q4J       0.051367
     46 H8           7.2470     2.9450     3.5760 hc         1 Q4J       0.051367
     47 H9           8.1250     3.0850     2.0540 hc         1 Q4J       0.051367
     48 H10          4.6680     3.5610     3.4880 hn         1 Q4J       0.320700
     49 H11          2.5830     3.6950    -0.4340 hn         1 Q4J       0.456800
     50 H12          1.8330     3.7960    -2.6570 ha         1 Q4J       0.148000
     51 H13          2.4030     3.0580    -6.0290 hc         1 Q4J       0.055033
     52 H14          1.2550     3.9210    -4.9980 hc         1 Q4J       0.055033
     53 H15          2.4340     4.8110    -5.9680 hc         1 Q4J       0.055033
     54 H16          7.4690     3.5910    -3.0800 hc         1 Q4J       0.075700
     55 H17          6.4210     2.7190    -5.7690 hc         1 Q4J       0.053700
     56 H18          7.4530     1.8540    -4.6490 hc         1 Q4J       0.053700
     57 H19          8.1650     3.8880    -6.7690 hc         1 Q4J       0.058700
     58 H20          8.9690     2.3890    -6.3610 hc         1 Q4J       0.058700
     59 H21          6.9910     5.9780    -3.6740 hc         1 Q4J       0.053700
     60 H22          6.7620     5.4970    -5.3390 hc         1 Q4J       0.053700
     61 H23          9.3020     5.7640    -3.7520 hc         1 Q4J       0.058700
     62 H24          8.9890     6.1380    -5.4210 hc         1 Q4J       0.058700
     63 H25         11.0750     2.9680    -2.4390 h1         1 Q4J       0.033700
     64 H26         11.4260     4.4460    -3.3400 h1         1 Q4J       0.033700
     65 H27          9.9990     4.3610    -2.2900 h1         1 Q4J       0.033700
     66 H28         11.5600     2.6430    -5.3550 hn         1 Q4J       0.331500
     67 H29         13.2370     4.4390    -6.8800 h1         1 Q4J       0.072700
     68 H30         13.0840     5.0050    -9.1230 h4         1 Q4J       0.031100
     69 H31          9.8190     0.9670   -14.5280 h4         1 Q4J       0.054100
     70 H32         11.9540     4.4400   -13.0890 h4         1 Q4J       0.208000
     71 H2          14.1930     2.6750    -5.4470 hc         1 Q4J       0.046367
@<TRIPOS>BOND
     1     1     3 2   
     2     1    10 1   
     3     1    40 1   
     4     2    30 1   
     5     2    41 1   
     6     2    42 1   
     7     2    71 1   
     8     3     7 1   
     9     3     8 1   
    10     4     5 ar  
    11     4    31 ar  
    12     4    43 1   
    13     5     6 ar  
    14     5    44 1   
    15     6    33 ar  
    16     6    34 1   
    17     7    45 1   
    18     7    46 1   
    19     7    47 1   
    20     8     9 1   
    21     8    48 1   
    22     9    10 2   
    23    10    11 1   
    24    11    12 1   
    25    11    49 1   
    26    12    13 ar  
    27    12    14 ar  
    28    13    18 ar  
    29    14    15 ar  
    30    14    50 1   
    31    15    16 1   
    32    15    17 ar  
    33    16    51 1   
    34    16    52 1   
    35    16    53 1   
    36    17    18 ar  
    37    18    19 1   
    38    19    20 1   
    39    19    22 1   
    40    19    54 1   
    41    20    21 1   
    42    20    55 1   
    43    20    56 1   
    44    21    24 1   
    45    21    57 1   
    46    21    58 1   
    47    22    23 1   
    48    22    59 1   
    49    22    60 1   
    50    23    24 1   
    51    23    61 1   
    52    23    62 1   
    53    24    25 1   
    54    24    27 1   
    55    25    26 1   
    56    26    63 1   
    57    26    64 1   
    58    26    65 1   
    59    27    28 2   
    60    27    29 1   
    61    29    30 1   
    62    29    66 1   
    63    30    31 1   
    64    30    67 1   
    65    31    32 ar  
    66    32    33 ar  
    67    32    68 1   
    68    34    35 1   
    69    34    39 1   
    70    35    36 2   
    71    36    37 1   
    72    36    69 1   
    73    37    38 1   
    74    37    39 2   
    75    39    70 1   
@<TRIPOS>SUBSTRUCTURE
     1 Q4J         1 TEMP              0 ****  ****    0 ROOT
