@<TRIPOS>MOLECULE
Q4K
   27    27     1     0     0
SMALL
bcc


@<TRIPOS>ATOM
      1 C10         36.8330    16.8590    61.4810 ca         1 Q4K       0.378600
      2 C13         39.4380    16.5200    60.8170 ca         1 Q4K      -0.142200
      3 C15         38.4160    15.7940    60.2190 ca         1 Q4K       0.438200
      4 C01         30.6610    15.4200    61.5620 c3         1 Q4K      -0.098100
      5 C02         31.1520    16.8430    61.4730 c3         1 Q4K       0.145400
      6 O03         32.5470    16.8020    61.1210 os         1 Q4K      -0.433900
      7 O05         32.7060    19.0360    61.0570 o          1 Q4K      -0.496000
      8 C06         34.6470    17.6720    60.6320 c3         1 Q4K       0.134600
      9 F07         35.2540    18.8810    60.3720 f          1 Q4K      -0.209300
     10 C08         35.3550    16.9780    61.7890 c3         1 Q4K       0.076800
     11 O09         35.0860    17.7130    62.9480 oh         1 Q4K      -0.578800
     12 C11         37.7890    17.6380    62.1150 ca         1 Q4K      -0.213300
     13 C12         39.1230    17.4620    61.7810 ca         1 Q4K      -0.066000
     14 BR1         41.2230    16.2110    60.3130 br         1 Q4K      -0.073100
     15 N16         37.1480    15.9630    60.5530 nb         1 Q4K      -0.676000
     16 H1          38.6290    15.0540    59.4550 h4         1 Q4K       0.037100
     17 H2          29.6060    15.4240    61.8340 hc         1 Q4K       0.047367
     18 H3          30.7580    14.9010    60.6090 hc         1 Q4K       0.047367
     19 H4          31.2000    14.8560    62.3230 hc         1 Q4K       0.047367
     20 H5          31.0350    17.3600    62.4270 h1         1 Q4K       0.050700
     21 H6          30.6020    17.4030    60.7140 h1         1 Q4K       0.050700
     22 H7          34.7140    17.0460    59.7380 h1         1 Q4K       0.097700
     23 H8          34.9500    15.9590    61.8430 h1         1 Q4K       0.075700
     24 H9          35.2980    17.1760    63.7190 ho         1 Q4K       0.415000
     25 H10         37.5110    18.3680    62.8630 ha         1 Q4K       0.162000
     26 H11         39.8900    18.0520    62.2660 ha         1 Q4K       0.155000
     27 C04         33.1900    17.9420    60.9650 c          1 Q4K       0.626100
@<TRIPOS>BOND
     1     1    10 1   
     2     1    12 ar  
     3     1    15 ar  
     4     2     3 ar  
     5     2    13 ar  
     6     2    14 1   
     7     3    15 ar  
     8     3    16 1   
     9     4     5 1   
    10     4    17 1   
    11     4    18 1   
    12     4    19 1   
    13     5     6 1   
    14     5    20 1   
    15     5    21 1   
    16     6    27 1   
    17     7    27 2   
    18     8     9 1   
    19     8    10 1   
    20     8    22 1   
    21     8    27 1   
    22    10    11 1   
    23    10    23 1   
    24    11    24 1   
    25    12    13 ar  
    26    12    25 1   
    27    13    26 1   
@<TRIPOS>SUBSTRUCTURE
     1 Q4K         1 TEMP              0 ****  ****    0 ROOT
