@<TRIPOS>MOLECULE
Q4K
   27    27     1     0     0
SMALL
No Charge or Current Charge


@<TRIPOS>ATOM
      1 C10         36.8450    16.8760    61.5770 ca         1 Q4K       0.313300
      2 C13         39.4170    16.3190    60.7420 ca         1 Q4K      -0.076900
      3 C15         38.3650    15.3900    60.6300 ca         1 Q4K       0.372900
      4 C01         30.6560    15.3060    61.1420 c3         1 Q4K      -0.098100
      5 C02         31.0800    16.7650    61.3730 c3         1 Q4K       0.168600
      6 O03         32.4970    16.8420    61.1400 os         1 Q4K      -0.457100
      7 O05         32.5160    19.0980    61.5620 o          1 Q4K      -0.447000
      8 C06         34.6220    17.9780    60.9730 c3         1 Q4K       0.153300
      9 F07         35.1860    19.2120    60.8330 f          1 Q4K      -0.228000
     10 C08         35.3950    17.1360    62.0250 c3         1 Q4K       0.100000
     11 O09         35.3330    17.7560    63.3340 oh         1 Q4K      -0.641000
     12 C11         37.8470    17.8590    61.7230 ca         1 Q4K      -0.130000
     13 C12         39.1570    17.5810    61.2990 ca         1 Q4K      -0.048000
     14 Br1         41.1790    15.8720    60.1440 br         1 Q4K      -0.073100
     15 N16         37.1000    15.6580    61.0380 nb         1 Q4K      -0.676000
     16 H1          38.5390    14.4040    60.2020 h4         1 Q4K       0.037100
     17 H2          29.5790    15.1930    61.3090 hc         1 Q4K       0.047367
     18 H3          30.8790    14.9980    60.1140 hc         1 Q4K       0.047367
     19 H4          31.1840    14.6370    61.8320 hc         1 Q4K       0.047367
     20 H5          30.8360    17.0590    62.4030 h1         1 Q4K       0.050700
     21 H6          30.5320    17.4200    60.6830 h1         1 Q4K       0.050700
     22 H7          34.6960    17.4660    60.0060 h1         1 Q4K       0.097700
     23 H8          34.8960    16.1580    62.0740 h1         1 Q4K       0.075700
     24 H9          35.7570    17.1420    63.9750 ho         1 Q4K       0.454000
     25 H10         37.6060    18.8250    62.1590 ha         1 Q4K       0.144000
     26 H11         39.9470    18.3220    61.4010 ha         1 Q4K       0.137000
     27 C04         33.1150    18.0600    61.2970 c          1 Q4K       0.577100
@<TRIPOS>BOND
     1     1    10 1   
     2     1    12 ar  
     3     1    15 ar  
     4     2     3 ar  
     5     2    13 ar  
     6     2    14 1   
     7     3    15 ar  
     8     3    16 1   
     9     4     5 1   
    10     4    17 1   
    11     4    18 1   
    12     4    19 1   
    13     5     6 1   
    14     5    20 1   
    15     5    21 1   
    16     6    27 1   
    17     7    27 2   
    18     8     9 1   
    19     8    10 1   
    20     8    22 1   
    21     8    27 1   
    22    10    11 1   
    23    10    23 1   
    24    11    24 1   
    25    12    13 ar  
    26    12    25 1   
    27    13    26 1   
@<TRIPOS>SUBSTRUCTURE
     1 Q4K         1 TEMP              0 ****  ****    0 ROOT
