@<TRIPOS>MOLECULE
Q4L
   32    33     1     0     0
SMALL
No Charge or Current Charge


@<TRIPOS>ATOM
      1 N1         -32.9120   -46.4470    24.3760 nh         1 Q4L      -0.851400
      2 C4         -33.6330   -47.4020    25.2760 c6         1 Q4L       0.219800
      3 C5         -34.9560   -46.8240    25.8630 c6         1 Q4L       0.102000
      4 C6         -32.0270   -46.8900    23.3610 ca         1 Q4L       0.333000
      5 C7         -31.3700   -48.1350    23.4670 ca         1 Q4L      -0.168500
      6 C8         -30.4910   -48.5730    22.4580 ca         1 Q4L      -0.098000
      7 C10        -30.9080   -46.5280    21.2110 ca         1 Q4L      -0.098000
      8 N          -34.8100   -45.4820    26.5080 n          1 Q4L      -0.414800
      9 C          -37.8740   -45.3910    28.4670 c3         1 Q4L       0.168900
     10 O          -36.8210   -45.8060    27.5770 os         1 Q4L      -0.462100
     11 C1         -35.7620   -44.9580    27.3990 c          1 Q4L       0.639100
     12 C11        -31.7860   -46.0920    22.2220 ca         1 Q4L      -0.168500
     13 C2         -33.5950   -44.7090    26.1230 c6         1 Q4L       0.102000
     14 C3         -33.1110   -44.9920    24.6700 c6         1 Q4L       0.219800
     15 C9         -30.2630   -47.7670    21.3330 ca         1 Q4L       0.107000
     16 F          -29.4210   -48.1860    20.3640 f          1 Q4L      -0.190000
     17 O1         -35.6490   -43.8700    27.9430 o          1 Q4L      -0.542000
     18 H7         -33.8800   -48.3250    24.7310 h1         1 Q4L       0.051700
     19 H8         -32.9760   -47.6850    26.1110 h1         1 Q4L       0.051700
     20 H10        -35.6950   -46.7420    25.0540 h1         1 Q4L       0.063950
     21 H9         -35.3490   -47.5460    26.5910 h1         1 Q4L       0.063950
     22 H11        -31.5250   -48.7650    24.3370 ha         1 Q4L       0.115500
     23 H12        -29.9860   -49.5320    22.5500 ha         1 Q4L       0.128500
     24 H13        -30.7310   -45.9080    20.3350 ha         1 Q4L       0.128500
     25 H2         -38.6560   -46.1590    28.5180 h1         1 Q4L       0.049700
     26 H1         -37.4880   -45.2300    29.4820 h1         1 Q4L       0.049700
     27 H          -38.3370   -44.4590    28.1190 h1         1 Q4L       0.049700
     28 H14        -32.2860   -45.1360    22.1080 ha         1 Q4L       0.115500
     29 H4         -33.7880   -43.6320    26.2200 h1         1 Q4L       0.063950
     30 H3         -32.7850   -44.9580    26.8230 h1         1 Q4L       0.063950
     31 H5         -33.8510   -44.5750    23.9710 h1         1 Q4L       0.051700
     32 H6         -32.1710   -44.4430    24.5120 h1         1 Q4L       0.051700
@<TRIPOS>BOND
     1     1     2 1   
     2     1     4 1   
     3     1    14 1   
     4     2     3 1   
     5     2    18 1   
     6     2    19 1   
     7     3     8 1   
     8     3    20 1   
     9     3    21 1   
    10     4     5 ar  
    11     4    12 ar  
    12     5     6 ar  
    13     5    22 1   
    14     6    15 ar  
    15     6    23 1   
    16     7    12 ar  
    17     7    15 ar  
    18     7    24 1   
    19     8    11 1   
    20     8    13 1   
    21     9    10 1   
    22     9    25 1   
    23     9    26 1   
    24     9    27 1   
    25    10    11 1   
    26    11    17 2   
    27    12    28 1   
    28    13    14 1   
    29    13    29 1   
    30    13    30 1   
    31    14    31 1   
    32    14    32 1   
    33    15    16 1   
@<TRIPOS>SUBSTRUCTURE
     1 Q4L         1 TEMP              0 ****  ****    0 ROOT
