@<TRIPOS>MOLECULE
Q4L
   32    33     1     0     0
SMALL
abcg2


@<TRIPOS>ATOM
      1 N1         -33.0420   -46.4290    24.3310 nh         1 Q4L      -0.851400
      2 C4         -33.6460   -47.3520    25.2790 c6         1 Q4L       0.219800
      3 C5         -34.9870   -46.8280    25.7650 c6         1 Q4L       0.102000
      4 C6         -32.1120   -46.8590    23.4100 ca         1 Q4L       0.333000
      5 C7         -31.5730   -48.1610    23.4650 ca         1 Q4L      -0.168500
      6 C8         -30.6480   -48.5970    22.5240 ca         1 Q4L      -0.098000
      7 C10        -30.7410   -46.4490    21.4350 ca         1 Q4L      -0.098000
      8 N          -34.8200   -45.5170    26.3930 n          1 Q4L      -0.414800
      9 C          -37.6540   -45.4250    28.5390 c3         1 Q4L       0.168900
     10 O          -36.7120   -45.8540    27.5420 os         1 Q4L      -0.462100
     11 C1         -35.6690   -45.0230    27.3170 c          1 Q4L       0.639100
     12 C11        -31.6720   -46.0150    22.3700 ca         1 Q4L      -0.168500
     13 C2         -33.6800   -44.7110    25.9640 c6         1 Q4L       0.102000
     14 C3         -33.3290   -45.0120    24.5150 c6         1 Q4L       0.219800
     15 C9         -30.2440   -47.7350    21.5240 ca         1 Q4L       0.107000
     16 F          -29.3310   -48.1660    20.6020 f          1 Q4L      -0.190000
     17 O1         -35.5310   -43.9510    27.8920 o          1 Q4L      -0.542000
     18 H7         -33.8280   -48.3080    24.7880 h1         1 Q4L       0.051700
     19 H8         -32.9880   -47.5440    26.1370 h1         1 Q4L       0.051700
     20 H10        -35.6860   -46.7630    24.9260 h1         1 Q4L       0.063950
     21 H9         -35.3960   -47.5280    26.4900 h1         1 Q4L       0.063950
     22 H11        -31.8580   -48.8380    24.2560 ha         1 Q4L       0.115500
     23 H12        -30.2380   -49.5970    22.5780 ha         1 Q4L       0.128500
     24 H13        -30.4150   -45.7940    20.6380 ha         1 Q4L       0.128500
     25 H2         -38.4050   -46.2090    28.5820 h1         1 Q4L       0.049700
     26 H1         -37.1660   -45.3170    29.5070 h1         1 Q4L       0.049700
     27 H          -38.1120   -44.4790    28.2510 h1         1 Q4L       0.049700
     28 H14        -32.0740   -45.0170    22.2710 ha         1 Q4L       0.115500
     29 H4         -33.9370   -43.6590    26.0630 h1         1 Q4L       0.063950
     30 H3         -32.8130   -44.9070    26.6030 h1         1 Q4L       0.063950
     31 H5         -34.1420   -44.6780    23.8590 h1         1 Q4L       0.051700
     32 H6         -32.4450   -44.4250    24.2640 h1         1 Q4L       0.051700
@<TRIPOS>BOND
     1     1     2 1   
     2     1     4 1   
     3     1    14 1   
     4     2     3 1   
     5     2    18 1   
     6     2    19 1   
     7     3     8 1   
     8     3    20 1   
     9     3    21 1   
    10     4     5 ar  
    11     4    12 ar  
    12     5     6 ar  
    13     5    22 1   
    14     6    15 ar  
    15     6    23 1   
    16     7    12 ar  
    17     7    15 ar  
    18     7    24 1   
    19     8    11 1   
    20     8    13 1   
    21     9    10 1   
    22     9    25 1   
    23     9    26 1   
    24     9    27 1   
    25    10    11 1   
    26    11    17 2   
    27    12    28 1   
    28    13    14 1   
    29    13    29 1   
    30    13    30 1   
    31    14    31 1   
    32    14    32 1   
    33    15    16 1   
@<TRIPOS>SUBSTRUCTURE
     1 Q4L         1 TEMP              0 ****  ****    0 ROOT
