@<TRIPOS>MOLECULE
Q4M
   45    49     1     0     0
SMALL
bcc


@<TRIPOS>ATOM
      1 C10         14.5750   -58.5080   -29.8820 ca         1 Q4M      -0.066200
      2 C13         11.9990   -58.9950   -30.7750 ca         1 Q4M       0.105100
      3 C15         10.0780   -58.3730   -32.0390 c3         1 Q4M       0.128700
      4 C20         17.8080   -63.4090   -27.5510 ca         1 Q4M      -0.101300
      5 C21         17.7590   -64.6910   -28.0970 ca         1 Q4M      -0.055800
      6 C22         17.3170   -64.8190   -29.4340 ca         1 Q4M      -0.070200
      7 C24         17.0120   -62.4570   -29.6460 ca         1 Q4M      -0.122000
      8 C26         17.8040   -66.8540   -28.6690 cc         1 Q4M      -0.101100
      9 C02         17.1090   -63.2410   -25.1990 c3         1 Q4M       0.060000
     10 C03         18.2340   -62.9540   -26.1830 c5         1 Q4M      -0.029400
     11 C04         18.4660   -61.4560   -26.4200 c5         1 Q4M       0.098000
     12 C06         17.1550   -59.8830   -27.7610 c          1 Q4M       0.709300
     13 C07         15.9560   -59.6850   -28.5950 cc         1 Q4M      -0.131300
     14 C08         14.8060   -60.4270   -28.6810 cd         1 Q4M      -0.145200
     15 C09         13.9060   -59.6930   -29.5030 ca         1 Q4M      -0.079800
     16 C11         13.9690   -57.5680   -30.7080 ca         1 Q4M      -0.111000
     17 C12         12.6830   -57.8180   -31.1480 ca         1 Q4M      -0.174000
     18 C16         12.6030   -59.9310   -29.9550 ca         1 Q4M      -0.117000
     19 C19         17.4090   -62.3240   -28.3090 ca         1 Q4M       0.044600
     20 C23         16.9580   -63.7180   -30.2100 ca         1 Q4M      -0.115000
     21 C27         18.0670   -66.0040   -27.6300 cd         1 Q4M      -0.199200
     22 N05         17.5830   -61.1470   -27.5470 n          1 Q4M      -0.380000
     23 N17         15.8100   -58.5270   -29.3050 na         1 Q4M      -0.142400
     24 N25         17.3580   -66.1480   -29.7460 na         1 Q4M      -0.170400
     25 O14         10.7400   -59.2820   -31.1870 os         1 Q4M      -0.323900
     26 O18         17.6920   -58.9220   -27.2240 o          1 Q4M      -0.590100
     27 CL1         17.5530   -62.7280   -23.5300 cl         1 Q4M      -0.216400
     28 H151         9.1060   -58.8090   -32.2610 h1         1 Q4M       0.037367
     29 H152         9.9220   -57.3990   -31.5660 h1         1 Q4M       0.037367
     30 H153        10.6130   -58.2220   -32.9800 h1         1 Q4M       0.037367
     31 H241        16.7590   -61.5960   -30.2460 ha         1 Q4M       0.151000
     32 H261        17.9030   -67.9260   -28.7210 h4         1 Q4M       0.164000
     33 H022        16.1990   -62.7080   -25.4670 h1         1 Q4M       0.073200
     34 H021        16.8910   -64.3060   -25.1520 h1         1 Q4M       0.073200
     35 H031        19.1480   -63.4450   -25.8470 hc         1 Q4M       0.084700
     36 H041        18.2210   -60.8390   -25.5580 h1         1 Q4M       0.072200
     37 H042        19.5080   -61.2700   -26.6920 h1         1 Q4M       0.072200
     38 H081        14.6230   -61.3800   -28.2110 ha         1 Q4M       0.164000
     39 H111        14.4780   -56.6600   -31.0050 ha         1 Q4M       0.135000
     40 H121        12.2100   -57.0870   -31.7880 ha         1 Q4M       0.134000
     41 H161        12.0730   -60.8330   -29.6740 ha         1 Q4M       0.149000
     42 H231        16.6590   -63.8390   -31.2440 ha         1 Q4M       0.137000
     43 H271        18.4310   -66.2870   -26.6560 ha         1 Q4M       0.158000
     44 H171        16.5110   -57.8080   -29.3870 hn         1 Q4M       0.314700
     45 H251        17.1000   -66.5510   -30.6310 hn         1 Q4M       0.301700
@<TRIPOS>BOND
     1     1    15 ar  
     2     1    16 ar  
     3     1    23 1   
     4     2    17 ar  
     5     2    18 ar  
     6     2    25 1   
     7     3    25 1   
     8     3    28 1   
     9     3    29 1   
    10     3    30 1   
    11     4     5 ar  
    12     4    10 1   
    13     4    19 ar  
    14     5     6 ar  
    15     5    21 1   
    16     6    20 ar  
    17     6    24 1   
    18     7    19 ar  
    19     7    20 ar  
    20     7    31 1   
    21     8    21 2   
    22     8    24 1   
    23     8    32 1   
    24     9    10 1   
    25     9    27 1   
    26     9    33 1   
    27     9    34 1   
    28    10    11 1   
    29    10    35 1   
    30    11    22 1   
    31    11    36 1   
    32    11    37 1   
    33    12    13 1   
    34    12    22 1   
    35    12    26 2   
    36    13    14 2   
    37    13    23 1   
    38    14    15 1   
    39    14    38 1   
    40    15    18 ar  
    41    16    17 ar  
    42    16    39 1   
    43    17    40 1   
    44    18    41 1   
    45    19    22 1   
    46    20    42 1   
    47    21    43 1   
    48    23    44 1   
    49    24    45 1   
@<TRIPOS>SUBSTRUCTURE
     1 Q4M         1 TEMP              0 ****  ****    0 ROOT
