@<TRIPOS>MOLECULE
Q4M
   45    49     1     0     0
SMALL
No Charge or Current Charge


@<TRIPOS>ATOM
      1 C10         14.5820   -58.3430   -29.8950 ca         1 Q4M      -0.066200
      2 C13         12.0570   -59.0540   -30.8470 ca         1 Q4M       0.105100
      3 C15          9.9530   -58.5770   -32.0490 c3         1 Q4M       0.151900
      4 C20         17.7660   -63.3840   -27.5540 ca         1 Q4M      -0.101300
      5 C21         17.6320   -64.6560   -28.1190 ca         1 Q4M      -0.055800
      6 C22         17.2370   -64.8190   -29.4190 ca         1 Q4M      -0.070200
      7 C24         17.0880   -62.4190   -29.6990 ca         1 Q4M      -0.104000
      8 C26         17.5760   -66.9320   -28.5840 cc         1 Q4M      -0.151100
      9 C02         17.1900   -63.4550   -25.0770 c3         1 Q4M       0.136600
     10 C03         18.2090   -63.0100   -26.1500 c5         1 Q4M      -0.029400
     11 C04         18.3660   -61.4310   -26.2760 c5         1 Q4M       0.098000
     12 C06         17.4290   -59.7740   -27.9030 c          1 Q4M       0.642300
     13 C07         16.2060   -59.4610   -28.7040 cc         1 Q4M      -0.131300
     14 C08         15.0920   -60.2790   -28.9040 cd         1 Q4M      -0.195200
     15 C09         14.0820   -59.5900   -29.6620 ca         1 Q4M      -0.079800
     16 C11         13.8550   -57.3850   -30.6120 ca         1 Q4M      -0.093000
     17 C12         12.5770   -57.7500   -31.0940 ca         1 Q4M      -0.156000
     18 C16         12.8210   -59.9900   -30.1180 ca         1 Q4M      -0.099000
     19 C19         17.4920   -62.2840   -28.3460 ca         1 Q4M      -0.048000
     20 C23         16.9570   -63.7180   -30.2490 ca         1 Q4M      -0.097000
     21 C27         17.8450   -65.9830   -27.6060 cd         1 Q4M      -0.249200
     22 N05         17.6610   -61.1250   -27.5490 n          1 Q4M      -0.220400
     23 N17         15.8380   -58.2370   -29.3150 na         1 Q4M      -0.192700
     24 N25         17.1940   -66.1740   -29.7150 na         1 Q4M      -0.220700
     25 O14         10.8130   -59.4520   -31.2970 os         1 Q4M      -0.347100
     26 O18         18.1810   -58.8840   -27.5170 o          1 Q4M      -0.590100
     27 Cl1         17.7410   -63.0050   -23.4010 cl         1 Q4M      -0.293000
     28 H151         9.0180   -59.0920   -32.3060 h1         1 Q4M       0.037367
     29 H152         9.7000   -57.6830   -31.4660 h1         1 Q4M       0.037367
     30 H153        10.4360   -58.2640   -32.9840 h1         1 Q4M       0.037367
     31 H241        16.9030   -61.5500   -30.3250 ha         1 Q4M       0.133000
     32 H261        17.6230   -68.0190   -28.5740 h4         1 Q4M       0.214000
     33 H022        16.2180   -62.9780   -25.2550 h1         1 Q4M       0.073200
     34 H021        17.0630   -64.5440   -25.1030 h1         1 Q4M       0.073200
     35 H031        19.1680   -63.4760   -25.8950 hc         1 Q4M       0.084700
     36 H041        17.9230   -60.8950   -25.4260 h1         1 Q4M       0.072200
     37 H042        19.4230   -61.1450   -26.3480 h1         1 Q4M       0.072200
     38 H081        14.9720   -61.2800   -28.4990 ha         1 Q4M       0.214000
     39 H111        14.2580   -56.3920   -30.7930 ha         1 Q4M       0.117000
     40 H121        12.0060   -57.0140   -31.6510 ha         1 Q4M       0.116000
     41 H161        12.4420   -60.9880   -29.9190 ha         1 Q4M       0.131000
     42 H231        16.6540   -63.8570   -31.2840 ha         1 Q4M       0.119000
     43 H271        18.1780   -66.2190   -26.5980 ha         1 Q4M       0.208000
     44 H171        16.4090   -57.3970   -29.3170 hn         1 Q4M       0.365000
     45 H251        16.9290   -66.5600   -30.6160 hn         1 Q4M       0.352000
@<TRIPOS>BOND
     1     1    15 ar  
     2     1    16 ar  
     3     1    23 1   
     4     2    17 ar  
     5     2    18 ar  
     6     2    25 1   
     7     3    25 1   
     8     3    28 1   
     9     3    29 1   
    10     3    30 1   
    11     4     5 ar  
    12     4    10 1   
    13     4    19 ar  
    14     5     6 ar  
    15     5    21 1   
    16     6    20 ar  
    17     6    24 1   
    18     7    19 ar  
    19     7    20 ar  
    20     7    31 1   
    21     8    21 2   
    22     8    24 1   
    23     8    32 1   
    24     9    10 1   
    25     9    27 1   
    26     9    33 1   
    27     9    34 1   
    28    10    11 1   
    29    10    35 1   
    30    11    22 1   
    31    11    36 1   
    32    11    37 1   
    33    12    13 1   
    34    12    22 1   
    35    12    26 2   
    36    13    14 2   
    37    13    23 1   
    38    14    15 1   
    39    14    38 1   
    40    15    18 ar  
    41    16    17 ar  
    42    16    39 1   
    43    17    40 1   
    44    18    41 1   
    45    19    22 1   
    46    20    42 1   
    47    21    43 1   
    48    23    44 1   
    49    24    45 1   
@<TRIPOS>SUBSTRUCTURE
     1 Q4M         1 TEMP              0 ****  ****    0 ROOT
