@<TRIPOS>MOLECULE
Q4O
   51    53     1     0     0
SMALL
abcg2


@<TRIPOS>ATOM
      1 C4          -9.7490     4.4140    -0.4730 ca         1 Q4O       0.199000
      2 C5          -8.6260     4.1120     0.2810 ca         1 Q4O      -0.158000
      3 C6          -8.6710     3.0180     1.1250 ca         1 Q4O       0.215000
      4 C13        -15.5560     4.6580    -0.1570 ca         1 Q4O      -0.171000
      5 C15        -17.1930     4.6530    -1.9150 ca         1 Q4O       0.027100
      6 C17        -14.8770     4.1360    -2.4190 ca         1 Q4O      -0.168000
      7 C20        -18.8950     5.9090    -2.9390 c3         1 Q4O       0.386300
      8 C26         -8.8050    -0.7320     3.4550 c3         1 Q4O       0.161300
      9 C28         -8.5230     0.9650     5.3390 ca         1 Q4O      -0.068000
     10 C1          -9.8020     2.2220     1.2770 ca         1 Q4O      -0.187600
     11 C2         -10.9180     2.5770     0.5190 ca         1 Q4O      -0.011000
     12 C3         -10.9110     3.6440    -0.3700 ca         1 Q4O      -0.175600
     13 F7          -7.5530     2.7550     1.8380 f          1 Q4O      -0.173000
     14 CL8         -9.6890     5.8090    -1.5090 cl         1 Q4O      -0.156000
     15 C9         -12.1060     3.8850    -1.2500 c          1 Q4O       0.627700
     16 O10        -12.0180     3.8260    -2.4680 o          1 Q4O      -0.548100
     17 N11        -13.2560     4.1310    -0.5660 ns         1 Q4O      -0.140000
     18 C12        -14.5540     4.3090    -1.0700 ca         1 Q4O       0.011000
     19 C14        -16.8640     4.8280    -0.5790 ca         1 Q4O      -0.049000
     20 C16        -16.1900     4.3080    -2.8090 ca         1 Q4O       0.186000
     21 F18        -16.5100     4.1300    -4.1080 f          1 Q4O      -0.164000
     22 F21        -19.3040     6.8100    -1.9920 f          1 Q4O      -0.115500
     23 F22        -19.9810     5.6270    -3.6920 f          1 Q4O      -0.115500
     24 C23         -9.9380     1.0450     2.2030 c          1 Q4O       0.615700
     25 N24         -8.8120     0.3940     2.5430 ns         1 Q4O      -0.494900
     26 O25        -11.0530     0.7000     2.5940 o          1 Q4O      -0.595100
     27 C27         -8.6400    -0.3490     4.9110 ca         1 Q4O      -0.133300
     28 C29         -8.3640     1.2760     6.6890 ca         1 Q4O      -0.142000
     29 C30         -8.3200     0.2530     7.6240 ca         1 Q4O      -0.072000
     30 C31         -8.4350    -1.0760     7.2210 ca         1 Q4O      -0.189000
     31 C32         -8.5950    -1.3760     5.8700 ca         1 Q4O       0.140100
     32 O33         -8.7170    -2.6410     5.3790 os         1 Q4O      -0.357100
     33 C34         -8.6570    -3.7340     6.2930 c3         1 Q4O       0.149900
     34 H1          -7.7310     4.7130     0.2240 ha         1 Q4O       0.157000
     35 H2         -15.3060     4.7910     0.8870 ha         1 Q4O       0.125000
     36 H3         -14.1320     3.8670    -3.1480 ha         1 Q4O       0.172000
     37 H4         -18.1210     6.3770    -3.5470 h3         1 Q4O       0.067700
     38 H5          -9.7340    -1.2860     3.3220 h1         1 Q4O       0.074200
     39 H6          -7.9940    -1.3970     3.1570 h1         1 Q4O       0.074200
     40 H8         -11.8110     1.9760     0.6270 ha         1 Q4O       0.153000
     41 H9         -13.1690     4.2150     0.4360 hn         1 Q4O       0.163000
     42 H10        -17.6420     5.0900     0.1250 ha         1 Q4O       0.141000
     43 H11         -7.9250     0.7380     2.2140 hn         1 Q4O       0.326500
     44 H12         -8.2740     2.3090     6.9990 ha         1 Q4O       0.116000
     45 H13         -8.1950     0.4780     8.6760 ha         1 Q4O       0.113000
     46 H14         -8.3980    -1.8630     7.9590 ha         1 Q4O       0.118000
     47 H15         -8.7680    -4.6320     5.6910 h1         1 Q4O       0.042700
     48 H16         -7.6960    -3.7560     6.8140 h1         1 Q4O       0.042700
     49 H17         -9.4660    -3.6790     7.0250 h1         1 Q4O       0.042700
     50 O19        -18.5140     4.7370    -2.3420 os         1 Q4O      -0.377100
     51 H7          -8.5520     1.7620     4.6070 ha         1 Q4O       0.113000
@<TRIPOS>BOND
     1     1     2 ar  
     2     1    12 ar  
     3     1    14 1   
     4     2     3 ar  
     5     2    34 1   
     6     3    10 ar  
     7     3    13 1   
     8     4    18 ar  
     9     4    19 ar  
    10     4    35 1   
    11     5    19 ar  
    12     5    20 ar  
    13     5    50 1   
    14     6    18 ar  
    15     6    20 ar  
    16     6    36 1   
    17     7    22 1   
    18     7    23 1   
    19     7    37 1   
    20     7    50 1   
    21     8    25 1   
    22     8    27 1   
    23     8    38 1   
    24     8    39 1   
    25     9    27 ar  
    26     9    28 ar  
    27     9    51 1   
    28    10    11 ar  
    29    10    24 1   
    30    11    12 ar  
    31    11    40 1   
    32    12    15 1   
    33    15    16 2   
    34    15    17 1   
    35    17    18 1   
    36    17    41 1   
    37    19    42 1   
    38    20    21 1   
    39    24    25 1   
    40    24    26 2   
    41    25    43 1   
    42    27    31 ar  
    43    28    29 ar  
    44    28    44 1   
    45    29    30 ar  
    46    29    45 1   
    47    30    31 ar  
    48    30    46 1   
    49    31    32 1   
    50    32    33 1   
    51    33    47 1   
    52    33    48 1   
    53    33    49 1   
@<TRIPOS>SUBSTRUCTURE
     1 Q4O         1 TEMP              0 ****  ****    0 ROOT
