@<TRIPOS>MOLECULE
Q4O
   51    53     1     0     0
SMALL
No Charge or Current Charge


@<TRIPOS>ATOM
      1 C4          -9.3740     3.1130    -0.8960 ca         1 Q4O       0.199000
      2 C5          -8.3950     2.4050    -0.1890 ca         1 Q4O      -0.158000
      3 C6          -8.7460     1.4620     0.7820 ca         1 Q4O       0.215000
      4 C13        -15.2580     4.4240    -0.0060 ca         1 Q4O      -0.171000
      5 C15        -16.8410     5.4860    -1.5350 ca         1 Q4O       0.027100
      6 C17        -14.5940     4.8600    -2.2950 ca         1 Q4O      -0.168000
      7 C20        -18.5240     6.8230    -2.8100 c3         1 Q4O       0.386300
      8 C26         -9.8860    -1.4910     3.8520 c3         1 Q4O       0.161300
      9 C28        -10.8970    -0.4050     5.9050 ca         1 Q4O      -0.068000
     10 C1         -10.1060     1.2040     1.0760 ca         1 Q4O      -0.187600
     11 C2         -11.0890     1.9270     0.3580 ca         1 Q4O      -0.011000
     12 C3         -10.7450     2.8850    -0.6300 ca         1 Q4O      -0.175600
     13 F7          -7.7390     0.8250     1.4210 f          1 Q4O      -0.173000
     14 Cl8         -8.8010     4.3210    -2.0500 cl         1 Q4O      -0.156000
     15 C9         -11.8390     3.6210    -1.3790 c          1 Q4O       0.627700
     16 O10        -11.7020     3.9900    -2.5390 o          1 Q4O      -0.548100
     17 N11        -13.0240     3.7860    -0.6700 ns         1 Q4O      -0.140000
     18 C12        -14.2790     4.3630    -1.0120 ca         1 Q4O       0.011000
     19 C14        -16.5250     4.9770    -0.2650 ca         1 Q4O      -0.049000
     20 C16        -15.8580     5.4150    -2.5610 ca         1 Q4O       0.186000
     21 F18        -16.0990     5.8470    -3.8190 f          1 Q4O      -0.164000
     22 F21        -17.8460     7.9940    -2.8260 f          1 Q4O      -0.115500
     23 F22        -19.8320     7.1440    -2.6980 f          1 Q4O      -0.115500
     24 C23        -10.5710     0.1970     2.1120 c          1 Q4O       0.615700
     25 N24         -9.6150    -0.5240     2.7880 ns         1 Q4O      -0.494900
     26 O25        -11.7590     0.0260     2.3460 o          1 Q4O      -0.595100
     27 C27         -9.7450    -0.8500     5.2260 ca         1 Q4O      -0.133300
     28 C29        -10.7870     0.1920     7.1710 ca         1 Q4O      -0.142000
     29 C30         -9.5270     0.3520     7.7670 ca         1 Q4O      -0.072000
     30 C31         -8.3720    -0.0840     7.0960 ca         1 Q4O      -0.189000
     31 C32         -8.4740    -0.6860     5.8210 ca         1 Q4O       0.140100
     32 O33         -7.3600    -1.1210     5.1270 os         1 Q4O      -0.357100
     33 C34         -6.0250    -0.9820     5.6450 c3         1 Q4O       0.149900
     34 H1          -7.3450     2.5940    -0.3920 ha         1 Q4O       0.157000
     35 H2         -15.0420     4.0410     0.9890 ha         1 Q4O       0.125000
     36 H3         -13.8800     4.8230    -3.1100 ha         1 Q4O       0.172000
     37 H4         -18.3750     6.2990    -3.7590 h3         1 Q4O       0.067700
     38 H5         -10.8950    -1.9080     3.7320 h1         1 Q4O       0.074200
     39 H6          -9.1800    -2.3270     3.7570 h1         1 Q4O       0.074200
     40 H8         -12.1380     1.7160     0.5610 ha         1 Q4O       0.153000
     41 H9         -12.9830     3.4460     0.2810 hn         1 Q4O       0.163000
     42 H10        -17.2680     5.0160     0.5280 ha         1 Q4O       0.141000
     43 H11         -8.6490    -0.3250     2.5620 hn         1 Q4O       0.326500
     44 H12        -11.6810     0.5320     7.6900 ha         1 Q4O       0.116000
     45 H13         -9.4450     0.8150     8.7480 ha         1 Q4O       0.113000
     46 H14         -7.4100     0.0550     7.5800 ha         1 Q4O       0.118000
     47 H15         -5.2970    -1.3890     4.9320 h1         1 Q4O       0.042700
     48 H16         -5.7790     0.0740     5.8140 h1         1 Q4O       0.042700
     49 H17         -5.9140    -1.5270     6.5910 h1         1 Q4O       0.042700
     50 O19        -18.1180     6.0120    -1.6910 os         1 Q4O      -0.377100
     51 H7         -11.8780    -0.5210     5.4500 ha         1 Q4O       0.113000
@<TRIPOS>BOND
     1     1     2 ar  
     2     1    12 ar  
     3     1    14 1   
     4     2     3 ar  
     5     2    34 1   
     6     3    10 ar  
     7     3    13 1   
     8     4    18 ar  
     9     4    19 ar  
    10     4    35 1   
    11     5    19 ar  
    12     5    20 ar  
    13     5    50 1   
    14     6    18 ar  
    15     6    20 ar  
    16     6    36 1   
    17     7    22 1   
    18     7    23 1   
    19     7    37 1   
    20     7    50 1   
    21     8    25 1   
    22     8    27 1   
    23     8    38 1   
    24     8    39 1   
    25     9    27 ar  
    26     9    28 ar  
    27     9    51 1   
    28    10    11 ar  
    29    10    24 1   
    30    11    12 ar  
    31    11    40 1   
    32    12    15 1   
    33    15    16 2   
    34    15    17 1   
    35    17    18 1   
    36    17    41 1   
    37    19    42 1   
    38    20    21 1   
    39    24    25 1   
    40    24    26 2   
    41    25    43 1   
    42    27    31 ar  
    43    28    29 ar  
    44    28    44 1   
    45    29    30 ar  
    46    29    45 1   
    47    30    31 ar  
    48    30    46 1   
    49    31    32 1   
    50    32    33 1   
    51    33    47 1   
    52    33    48 1   
    53    33    49 1   
@<TRIPOS>SUBSTRUCTURE
     1 Q4O         1 TEMP              0 ****  ****    0 ROOT
