@<TRIPOS>MOLECULE
Q4P
   40    44     1     0     0
SMALL
abcg2


@<TRIPOS>ATOM
      1 C10        -62.7700   -68.5790    11.2370 ca         1 Q4P      -0.049200
      2 C13        -64.7440   -68.5090    13.1170 ca         1 Q4P       0.137000
      3 C15        -64.4270   -69.7340    12.5980 ca         1 Q4P      -0.096000
      4 C20        -59.0960   -74.7430     7.1100 ca         1 Q4P      -0.072800
      5 C21        -58.1230   -74.0810     6.3570 ca         1 Q4P       0.037100
      6 C22        -57.9670   -72.7080     6.3560 ca         1 Q4P      -0.078000
      7 C26        -58.9120   -76.1410     6.8330 cc         1 Q4P      -0.249200
      8 C03        -61.0800   -74.4200     8.7700 c5         1 Q4P      -0.027400
      9 C04        -61.5360   -73.1090     9.4320 c5         1 Q4P       0.100000
     10 C07        -61.8540   -70.2570    10.0800 cc         1 Q4P      -0.134300
     11 C08        -62.8140   -70.8260    10.8890 cd         1 Q4P      -0.191200
     12 C09        -63.4090   -69.7730    11.6320 ca         1 Q4P      -0.098800
     13 C11        -63.1130   -67.3410    11.7850 ca         1 Q4P      -0.100000
     14 C12        -64.1110   -67.3180    12.7340 ca         1 Q4P      -0.119000
     15 C18        -59.8020   -72.5990     7.9160 ca         1 Q4P      -0.036000
     16 C19        -59.9480   -73.9780     7.8970 ca         1 Q4P      -0.106300
     17 C23        -58.8200   -71.9540     7.1500 ca         1 Q4P      -0.093000
     18 C25        -57.8800   -76.2050     5.9670 cd         1 Q4P      -0.055900
     19 F14        -65.7140   -68.4240    14.0500 f          1 Q4P      -0.184000
     20 N05        -60.7480   -72.0440     8.8030 n          1 Q4P      -0.202400
     21 N16        -61.8440   -68.9040    10.3020 na         1 Q4P      -0.182700
     22 O17        -60.1780   -69.8760     8.5210 o          1 Q4P      -0.612100
     23 O24        -57.3870   -74.9780     5.6620 os         1 Q4P      -0.167200
     24 H151       -64.9410   -70.6310    12.9200 ha         1 Q4P       0.135000
     25 H221       -57.2030   -72.2240     5.7630 ha         1 Q4P       0.136000
     26 H261       -59.4650   -76.9790     7.2240 ha         1 Q4P       0.215000
     27 H031       -60.7390   -75.1320     9.5260 hc         1 Q4P       0.086700
     28 H042       -62.5990   -72.9380     9.2660 h1         1 Q4P       0.066200
     29 H041       -61.3510   -73.1310    10.5050 h1         1 Q4P       0.066200
     30 H081       -63.0900   -71.8620    10.9720 ha         1 Q4P       0.209000
     31 H111       -62.6160   -66.4290    11.4820 ha         1 Q4P       0.124000
     32 H121       -64.4110   -66.3840    13.1900 ha         1 Q4P       0.132000
     33 H231       -58.7080   -70.8840     7.1660 ha         1 Q4P       0.156000
     34 H251       -57.3940   -77.0420     5.4910 h4         1 Q4P       0.240000
     35 H161       -61.2190   -68.2660     9.8360 hn         1 Q4P       0.375000
     36 C06        -60.8690   -70.7240     9.0750 c          1 Q4P       0.644300
     37 C02        -62.1700   -75.0770     7.9400 c3         1 Q4P       0.134600
     38 CL1        -63.5230   -75.6210     8.9970 cl         1 Q4P      -0.291000
     39 H021       -62.5910   -74.3880     7.2090 h1         1 Q4P       0.076200
     40 H022       -61.8040   -75.9620     7.4240 h1         1 Q4P       0.076200
@<TRIPOS>BOND
     1     1    12 ar  
     2     1    13 ar  
     3     1    21 1   
     4     2     3 ar  
     5     2    14 ar  
     6     2    19 1   
     7     3    12 ar  
     8     3    24 1   
     9     4     5 ar  
    10     4     7 1   
    11     4    16 ar  
    12     5     6 ar  
    13     5    23 1   
    14     6    17 ar  
    15     6    25 1   
    16     7    18 2   
    17     7    26 1   
    18     8     9 1   
    19     8    16 1   
    20     8    27 1   
    21     8    37 1   
    22     9    20 1   
    23     9    28 1   
    24     9    29 1   
    25    10    11 2   
    26    10    21 1   
    27    10    36 1   
    28    11    12 1   
    29    11    30 1   
    30    13    14 ar  
    31    13    31 1   
    32    14    32 1   
    33    15    16 ar  
    34    15    17 ar  
    35    15    20 1   
    36    17    33 1   
    37    18    23 1   
    38    18    34 1   
    39    20    36 1   
    40    21    35 1   
    41    22    36 2   
    42    37    38 1   
    43    37    39 1   
    44    37    40 1   
@<TRIPOS>SUBSTRUCTURE
     1 Q4P         1 TEMP              0 ****  ****    0 ROOT
