@<TRIPOS>MOLECULE
Q4P
   40    44     1     0     0
SMALL
No Charge or Current Charge


@<TRIPOS>ATOM
      1 C10        -63.0110   -68.5070    11.1550 ca         1 Q4P      -0.049200
      2 C13        -64.6680   -68.6500    13.3800 ca         1 Q4P       0.137000
      3 C15        -64.0270   -69.8180    12.9180 ca         1 Q4P      -0.096000
      4 C20        -59.0850   -74.7950     7.0890 ca         1 Q4P      -0.072800
      5 C21        -58.0020   -74.2530     6.4350 ca         1 Q4P       0.037100
      6 C22        -57.6700   -72.8930     6.5200 ca         1 Q4P      -0.078000
      7 C26        -59.1230   -76.2090     6.7810 cc         1 Q4P      -0.249200
      8 C03        -61.1520   -74.3830     8.6480 c5         1 Q4P      -0.027400
      9 C04        -61.4800   -73.0460     9.4390 c5         1 Q4P       0.100000
     10 C07        -61.7540   -70.0590     9.9900 cc         1 Q4P      -0.134300
     11 C08        -62.4130   -70.6590    11.0730 cd         1 Q4P      -0.191200
     12 C09        -63.2030   -69.6950    11.7920 ca         1 Q4P      -0.098800
     13 C11        -63.6330   -67.3280    11.5910 ca         1 Q4P      -0.100000
     14 C12        -64.4750   -67.4110    12.7230 ca         1 Q4P      -0.119000
     15 C18        -59.6020   -72.6390     7.9980 ca         1 Q4P      -0.036000
     16 C19        -59.9090   -73.9850     7.8790 ca         1 Q4P      -0.106300
     17 C23        -58.4940   -72.0640     7.3190 ca         1 Q4P      -0.093000
     18 C25        -58.0350   -76.4190     5.9420 cd         1 Q4P      -0.055900
     19 F14        -65.4740   -68.7140    14.4620 f          1 Q4P      -0.184000
     20 N05        -60.5860   -72.0260     8.8240 n          1 Q4P      -0.202400
     21 N16        -62.1460   -68.6990    10.0910 na         1 Q4P      -0.182700
     22 O17        -60.2210   -69.8260     8.2250 o          1 Q4P      -0.612100
     23 O24        -57.3650   -75.2340     5.7380 os         1 Q4P      -0.167200
     24 H151       -64.1680   -70.7730    13.4170 ha         1 Q4P       0.135000
     25 H221       -56.8080   -72.4920     5.9920 ha         1 Q4P       0.136000
     26 H261       -59.8280   -76.9620     7.1270 ha         1 Q4P       0.215000
     27 H031       -60.9420   -75.2040     9.3430 hc         1 Q4P       0.086700
     28 H042       -62.5400   -72.7700     9.3590 h1         1 Q4P       0.066200
     29 H041       -61.2180   -73.1890    10.4950 h1         1 Q4P       0.066200
     30 H081       -62.3290   -71.6850    11.4050 ha         1 Q4P       0.209000
     31 H111       -63.4740   -66.3830    11.0770 ha         1 Q4P       0.124000
     32 H121       -64.9770   -66.5210    13.0940 ha         1 Q4P       0.132000
     33 H231       -58.2530   -71.0090     7.4110 ha         1 Q4P       0.156000
     34 H251       -57.6530   -77.3160     5.4590 h4         1 Q4P       0.240000
     35 H161       -61.8290   -67.9640     9.4660 hn         1 Q4P       0.375000
     36 C06        -60.7980   -70.6170     8.9650 c          1 Q4P       0.644300
     37 C02        -62.2940   -74.8560     7.7210 c3         1 Q4P       0.134600
     38 Cl1        -63.7740   -75.3290     8.6710 cl         1 Q4P      -0.291000
     39 H021       -62.5780   -74.0550     7.0260 h1         1 Q4P       0.076200
     40 H022       -61.9780   -75.7330     7.1430 h1         1 Q4P       0.076200
@<TRIPOS>BOND
     1     1    12 ar  
     2     1    13 ar  
     3     1    21 1   
     4     2     3 ar  
     5     2    14 ar  
     6     2    19 1   
     7     3    12 ar  
     8     3    24 1   
     9     4     5 ar  
    10     4     7 1   
    11     4    16 ar  
    12     5     6 ar  
    13     5    23 1   
    14     6    17 ar  
    15     6    25 1   
    16     7    18 2   
    17     7    26 1   
    18     8     9 1   
    19     8    16 1   
    20     8    27 1   
    21     8    37 1   
    22     9    20 1   
    23     9    28 1   
    24     9    29 1   
    25    10    11 2   
    26    10    21 1   
    27    10    36 1   
    28    11    12 1   
    29    11    30 1   
    30    13    14 ar  
    31    13    31 1   
    32    14    32 1   
    33    15    16 ar  
    34    15    17 ar  
    35    15    20 1   
    36    17    33 1   
    37    18    23 1   
    38    18    34 1   
    39    20    36 1   
    40    21    35 1   
    41    22    36 2   
    42    37    38 1   
    43    37    39 1   
    44    37    40 1   
@<TRIPOS>SUBSTRUCTURE
     1 Q4P         1 TEMP              0 ****  ****    0 ROOT
