@<TRIPOS>MOLECULE
Q4Q
   43    43     1     0     0
SMALL
bcc


@<TRIPOS>ATOM
      1 S            0.4670     1.0930    -0.1340 s6         1 Q4Q       1.209900
      2 N1          -1.1030     1.1110    -0.6170 n7         1 Q4Q      -0.825100
      3 O1           1.1090     2.2420    -0.7540 o          1 Q4Q      -0.592300
      4 C2           3.0150    -1.1390     0.7510 ca         1 Q4Q      -0.100000
      5 N2          -4.4260    -0.4580    -0.0720 n3         1 Q4Q      -0.738600
      6 O2           0.4760     0.9660     1.3160 o          1 Q4Q      -0.592300
      7 C3           2.6480    -0.4820    -0.4200 ca         1 Q4Q      -0.084300
      8 C4           1.2110    -0.3950    -0.8270 c3         1 Q4Q      -0.166300
      9 C6          -5.0900    -2.8190    -0.4500 c3         1 Q4Q      -0.091100
     10 C7           3.6390     0.1140    -1.1910 ca         1 Q4Q      -0.100000
     11 C8           4.9700     0.0400    -0.8080 ca         1 Q4Q      -0.128000
     12 C9           5.3460    -0.6210     0.3590 ca         1 Q4Q      -0.063300
     13 C10          4.3460    -1.2110     1.1300 ca         1 Q4Q      -0.128000
     14 C11         -2.0450     0.1220    -0.0960 c3         1 Q4Q       0.200800
     15 C12         -3.4570     0.5380    -0.4870 c3         1 Q4Q       0.168800
     16 C08          6.7830    -0.6890     0.7860 c3         1 Q4Q      -0.049800
     17 C13         -5.7060     0.1390     0.2810 c3         1 Q4Q       0.175300
     18 C14         -5.6960     0.7570     1.6700 c3         1 Q4Q      -0.091100
     19 C17         -4.5510    -1.5310    -1.0490 c3         1 Q4Q       0.175300
     20 H1          -1.1890     1.2820    -1.6140 hn         1 Q4Q       0.420800
     21 H41C         0.6310    -1.2430    -0.4610 h1         1 Q4Q       0.091200
     22 H42C         1.0880    -0.3280    -1.9080 h1         1 Q4Q       0.091200
     23 H111        -1.8260    -0.8860    -0.4630 h1         1 Q4Q       0.059700
     24 H112        -1.9690     0.1030     0.9900 h1         1 Q4Q       0.059700
     25 H2           2.2580    -1.6140     1.3630 ha         1 Q4Q       0.137000
     26 H10          4.6110    -1.7350     2.0410 ha         1 Q4Q       0.132500
     27 H121        -3.5080     0.7300    -1.5710 h1         1 Q4Q       0.041700
     28 H122        -3.6760     1.4900    -0.0010 h1         1 Q4Q       0.041700
     29 H131        -6.0200     0.8880    -0.4630 h1         1 Q4Q       0.027950
     30 H132        -6.4690    -0.6410     0.2600 h1         1 Q4Q       0.027950
     31 H171        -5.1700    -1.2220    -1.9070 h1         1 Q4Q       0.027950
     32 H172        -3.5600    -1.7380    -1.4580 h1         1 Q4Q       0.027950
     33 H7           3.3740     0.6270    -2.1070 ha         1 Q4Q       0.137000
     34 H61C        -4.4540    -3.1550     0.3700 hc         1 Q4Q       0.039033
     35 H62C        -6.1040    -2.7110    -0.0640 hc         1 Q4Q       0.039033
     36 H63C        -5.1140    -3.6040    -1.2060 hc         1 Q4Q       0.039033
     37 H8           5.7280     0.5020    -1.4290 ha         1 Q4Q       0.132500
     38 H081         6.9800     0.0030     1.6070 hc         1 Q4Q       0.044033
     39 H082         7.0470    -1.6870     1.1380 hc         1 Q4Q       0.044033
     40 H083         7.4570    -0.4300    -0.0300 hc         1 Q4Q       0.044033
     41 H141        -5.4860    -0.0010     2.4250 hc         1 Q4Q       0.039033
     42 H142        -4.9470     1.5450     1.7690 hc         1 Q4Q       0.039033
     43 H143        -6.6660     1.2020     1.8950 hc         1 Q4Q       0.039033
@<TRIPOS>BOND
     1     1     2 1   
     2     1     3 2   
     3     1     6 2   
     4     1     8 1   
     5     2    14 1   
     6     2    20 1   
     7     4     7 ar  
     8     4    13 ar  
     9     4    25 1   
    10     5    15 1   
    11     5    17 1   
    12     5    19 1   
    13     7     8 1   
    14     7    10 ar  
    15     8    21 1   
    16     8    22 1   
    17     9    19 1   
    18     9    34 1   
    19     9    35 1   
    20     9    36 1   
    21    10    11 ar  
    22    10    33 1   
    23    11    12 ar  
    24    11    37 1   
    25    12    13 ar  
    26    12    16 1   
    27    13    26 1   
    28    14    15 1   
    29    14    23 1   
    30    14    24 1   
    31    15    27 1   
    32    15    28 1   
    33    16    38 1   
    34    16    39 1   
    35    16    40 1   
    36    17    18 1   
    37    17    29 1   
    38    17    30 1   
    39    18    41 1   
    40    18    42 1   
    41    18    43 1   
    42    19    31 1   
    43    19    32 1   
@<TRIPOS>SUBSTRUCTURE
     1 Q4Q         1 TEMP              0 ****  ****    0 ROOT
