@<TRIPOS>MOLECULE
Q4Q
   43    43     1     0     0
SMALL
No Charge or Current Charge


@<TRIPOS>ATOM
      1 S            0.5110     1.2350     0.5750 s6         1 Q4Q       1.179100
      2 N1          -1.0850     1.3580     0.1040 n7         1 Q4Q      -0.880300
      3 O1           1.1080     2.5400     0.2860 o          1 Q4Q      -0.521500
      4 C2           3.1080    -1.2600     0.5450 ca         1 Q4Q      -0.082000
      5 N2          -4.4740    -0.5180     0.1400 n3         1 Q4Q      -0.738600
      6 O2           0.4980     0.7210     1.9480 o          1 Q4Q      -0.521500
      7 C3           2.6680    -0.2800    -0.3640 ca         1 Q4Q      -0.084300
      8 C4           1.1780    -0.0140    -0.5450 c3         1 Q4Q      -0.277100
      9 C6          -5.0740    -3.0030    -0.0510 c3         1 Q4Q      -0.091100
     10 C7           3.6150     0.4500    -1.1050 ca         1 Q4Q      -0.082000
     11 C8           4.9890     0.2040    -0.9370 ca         1 Q4Q      -0.110000
     12 C9           5.4300    -0.7760    -0.0290 ca         1 Q4Q      -0.063300
     13 C10          4.4820    -1.5060     0.7130 ca         1 Q4Q      -0.110000
     14 C11         -1.9850     0.2000     0.3150 c3         1 Q4Q       0.200800
     15 C12         -3.4330     0.5190    -0.1590 c3         1 Q4Q       0.168800
     16 C08          6.9160    -1.0400     0.1550 c3         1 Q4Q      -0.049800
     17 C13         -5.8580    -0.0440    -0.1530 c3         1 Q4Q       0.175300
     18 C14         -6.3130     1.1960     0.6450 c3         1 Q4Q      -0.091100
     19 C17         -4.1710    -1.8330    -0.4950 c3         1 Q4Q       0.175300
     20 H1          -0.9860     1.5230    -0.8960 hn         1 Q4Q       0.476000
     21 H41C         0.6090    -0.9320    -0.3650 h1         1 Q4Q       0.091200
     22 H42C         0.9760     0.3380    -1.5620 h1         1 Q4Q       0.091200
     23 H111        -1.6140    -0.6790    -0.2260 h1         1 Q4Q       0.059700
     24 H112        -2.0290    -0.0590     1.3820 h1         1 Q4Q       0.059700
     25 H2           2.3860    -1.8310     1.1250 ha         1 Q4Q       0.119000
     26 H10          4.8090    -2.2640     1.4210 ha         1 Q4Q       0.114500
     27 H121        -3.4080     0.7160    -1.2390 h1         1 Q4Q       0.041700
     28 H122        -3.7030     1.4640     0.3280 h1         1 Q4Q       0.041700
     29 H131        -5.9630     0.1710    -1.2250 h1         1 Q4Q       0.027950
     30 H132        -6.5800    -0.8340     0.0860 h1         1 Q4Q       0.027950
     31 H171        -4.2250    -1.7440    -1.5890 h1         1 Q4Q       0.027950
     32 H172        -3.1460    -2.1360    -0.2510 h1         1 Q4Q       0.027950
     33 H7           3.2880     1.2110    -1.8110 ha         1 Q4Q       0.119000
     34 H61C        -5.1190    -3.0630     1.0430 hc         1 Q4Q       0.039033
     35 H62C        -6.0910    -2.8990    -0.4430 hc         1 Q4Q       0.039033
     36 H63C        -4.6700    -3.9500    -0.4280 hc         1 Q4Q       0.039033
     37 H8           5.7110     0.7780    -1.5150 ha         1 Q4Q       0.114500
     38 H081         7.3310    -0.4030     0.9450 hc         1 Q4Q       0.044033
     39 H082         7.1060    -2.0840     0.4320 hc         1 Q4Q       0.044033
     40 H083         7.4760    -0.8380    -0.7670 hc         1 Q4Q       0.044033
     41 H141        -6.1320     1.0540     1.7170 hc         1 Q4Q       0.039033
     42 H142        -5.7930     2.1020     0.3140 hc         1 Q4Q       0.039033
     43 H143        -7.3870     1.3600     0.4990 hc         1 Q4Q       0.039033
@<TRIPOS>BOND
     1     1     2 1   
     2     1     3 2   
     3     1     6 2   
     4     1     8 1   
     5     2    14 1   
     6     2    20 1   
     7     4     7 ar  
     8     4    13 ar  
     9     4    25 1   
    10     5    15 1   
    11     5    17 1   
    12     5    19 1   
    13     7     8 1   
    14     7    10 ar  
    15     8    21 1   
    16     8    22 1   
    17     9    19 1   
    18     9    34 1   
    19     9    35 1   
    20     9    36 1   
    21    10    11 ar  
    22    10    33 1   
    23    11    12 ar  
    24    11    37 1   
    25    12    13 ar  
    26    12    16 1   
    27    13    26 1   
    28    14    15 1   
    29    14    23 1   
    30    14    24 1   
    31    15    27 1   
    32    15    28 1   
    33    16    38 1   
    34    16    39 1   
    35    16    40 1   
    36    17    18 1   
    37    17    29 1   
    38    17    30 1   
    39    18    41 1   
    40    18    42 1   
    41    18    43 1   
    42    19    31 1   
    43    19    32 1   
@<TRIPOS>SUBSTRUCTURE
     1 Q4Q         1 TEMP              0 ****  ****    0 ROOT
