@<TRIPOS>MOLECULE
Q4R
   44    46     1     0     0
SMALL
abcg2


@<TRIPOS>ATOM
      1 N1           7.7150    -0.0620    21.2080 ns         1 Q4R      -0.155000
      2 N3          10.3060    -1.9430    26.7330 nb         1 Q4R      -0.689000
      3 C4           7.4680     1.8600    19.6990 ca         1 Q4R       0.327900
      4 C5           5.8790     1.8730    18.0540 ca         1 Q4R       0.312900
      5 C6           5.4310     0.6110    18.4170 ca         1 Q4R      -0.142000
      6 C7           6.0240    -0.0620    19.4790 ca         1 Q4R      -0.091300
      7 C8           5.5560    -1.4240    19.8970 c3         1 Q4R      -0.050800
      8 C10         12.4750    -2.3780    23.8140 ca         1 Q4R       0.017000
      9 C13         11.5210    -3.9010    25.9560 ca         1 Q4R      -0.106000
     10 C15         10.1690    -4.0200    27.9390 ca         1 Q4R      -0.173000
     11 C17         11.1350    -2.5340    25.8380 ca         1 Q4R       0.343000
     12 O2          11.7790     0.3040    23.2300 o          1 Q4R      -0.536000
     13 S           11.2120    -0.0710    24.5070 sy         1 Q4R       1.231600
     14 O1          11.5940     0.6840    25.6760 o          1 Q4R      -0.536000
     15 C9          11.6430    -1.7880    24.7360 ca         1 Q4R      -0.281500
     16 C16          9.8480    -2.6630    27.7330 ca         1 Q4R       0.379900
     17 C14         11.0070    -4.6360    27.0480 ca         1 Q4R      -0.046000
     18 C12         12.3840    -4.4770    24.9940 ca         1 Q4R      -0.036000
     19 C11         12.8510    -3.7300    23.9450 ca         1 Q4R      -0.137000
     20 N            9.5950     0.0110    24.3610 n3         1 Q4R      -0.768500
     21 C            8.7080     0.4250    25.4450 c3         1 Q4R       0.228100
     22 C1           8.9860    -0.5720    23.1890 c3         1 Q4R       0.148800
     23 C2           8.4360     0.4850    22.2240 c          1 Q4R       0.590100
     24 O            8.6430     1.6790    22.3660 o          1 Q4R      -0.545100
     25 C3           7.0760     0.5940    20.1400 ca         1 Q4R      -0.076000
     26 N2           6.8820     2.4920    18.6800 nb         1 Q4R      -0.643000
     27 H1           7.5780    -1.0610    21.2550 hn         1 Q4R       0.147000
     28 H2           8.2800     2.3720    20.1910 h4         1 Q4R       0.053100
     29 H3           5.4170     2.4020    17.2280 h4         1 Q4R       0.022100
     30 H4           4.6150     0.1490    17.8760 ha         1 Q4R       0.120000
     31 H5           6.3420    -2.1730    19.7670 hc         1 Q4R       0.045033
     32 H6           5.2690    -1.4360    20.9520 hc         1 Q4R       0.045033
     33 H7           4.6970    -1.7320    19.3040 hc         1 Q4R       0.045033
     34 H8          12.8410    -1.7970    22.9810 ha         1 Q4R       0.149000
     35 H9           9.7550    -4.5500    28.7860 ha         1 Q4R       0.130000
     36 H10          9.1830    -2.1580    28.4280 h4         1 Q4R       0.025100
     37 H11         11.2830    -5.6770    27.1610 ha         1 Q4R       0.122000
     38 H12         12.6650    -5.5170    25.1030 ha         1 Q4R       0.119000
     39 H13         13.5080    -4.1690    23.2070 ha         1 Q4R       0.125000
     40 H14          9.2930     0.8550    26.2490 h1         1 Q4R       0.052700
     41 H15          8.0210     1.1800    25.0610 h1         1 Q4R       0.052700
     42 H16          8.1460    -0.4280    25.8260 h1         1 Q4R       0.052700
     43 H17          8.1800    -1.2470    23.4910 h1         1 Q4R       0.063200
     44 H18          9.7110    -1.1750    22.6400 h1         1 Q4R       0.063200
@<TRIPOS>BOND
     1     1    23 1   
     2     1    25 1   
     3     1    27 1   
     4     2    11 ar  
     5     2    16 ar  
     6     3    25 ar  
     7     3    26 ar  
     8     3    28 1   
     9     4     5 ar  
    10     4    26 ar  
    11     4    29 1   
    12     5     6 ar  
    13     5    30 1   
    14     6     7 1   
    15     6    25 ar  
    16     7    31 1   
    17     7    32 1   
    18     7    33 1   
    19     8    15 ar  
    20     8    19 ar  
    21     8    34 1   
    22     9    11 ar  
    23     9    17 ar  
    24     9    18 ar  
    25    10    16 ar  
    26    10    17 ar  
    27    10    35 1   
    28    11    15 ar  
    29    12    13 2   
    30    13    14 2   
    31    13    15 1   
    32    13    20 1   
    33    16    36 1   
    34    17    37 1   
    35    18    19 ar  
    36    18    38 1   
    37    19    39 1   
    38    20    21 1   
    39    20    22 1   
    40    21    40 1   
    41    21    41 1   
    42    21    42 1   
    43    22    23 1   
    44    22    43 1   
    45    22    44 1   
    46    23    24 2   
@<TRIPOS>SUBSTRUCTURE
     1 Q4R         1 TEMP              0 ****  ****    0 ROOT
