@<TRIPOS>MOLECULE
Q4R
   44    46     1     0     0
SMALL
No Charge or Current Charge


@<TRIPOS>ATOM
      1 N1           7.8190    -0.4630    22.6270 ns         1 Q4R      -0.155000
      2 N3          10.1780    -2.3290    25.9380 nb         1 Q4R      -0.689000
      3 C4           8.1910     0.4180    20.3150 ca         1 Q4R       0.327900
      4 C5           7.8830    -0.9380    18.4620 ca         1 Q4R       0.312900
      5 C6           7.5120    -2.0260    19.2670 ca         1 Q4R      -0.142000
      6 C7           7.4800    -1.8800    20.6660 ca         1 Q4R      -0.091300
      7 C8           7.0800    -3.0580    21.5500 c3         1 Q4R      -0.050800
      8 C10         11.0820    -0.3820    22.9270 ca         1 Q4R       0.017000
      9 C13         10.5120    -3.0230    23.6550 ca         1 Q4R      -0.106000
     10 C15          9.9130    -4.6520    25.3280 ca         1 Q4R      -0.173000
     11 C17         10.4860    -2.0130    24.6580 ca         1 Q4R       0.343000
     12 O2          11.1990     1.8920    24.7510 o          1 Q4R      -0.536000
     13 S           10.7540     0.6870    25.4610 sy         1 Q4R       1.231600
     14 O1          11.3930     0.2600    26.7120 o          1 Q4R      -0.536000
     15 C9          10.7630    -0.6790    24.2740 ca         1 Q4R      -0.281500
     16 C16          9.9020    -3.6110    26.2640 ca         1 Q4R       0.379900
     17 C14         10.2230    -4.3570    23.9950 ca         1 Q4R      -0.046000
     18 C12         10.8180    -2.7120    22.3190 ca         1 Q4R      -0.036000
     19 C11         11.1050    -1.3930    21.9580 ca         1 Q4R      -0.137000
     20 N            9.0980     0.9440    25.8400 n3         1 Q4R      -0.768500
     21 C            8.7830     2.3340    26.2320 c3         1 Q4R       0.228100
     22 C1           8.0600     0.3030    24.9620 c3         1 Q4R       0.148800
     23 C2           8.0300     0.6430    23.4420 c          1 Q4R       0.590100
     24 O            8.1870     1.7820    23.0130 o          1 Q4R      -0.545100
     25 C3           7.8240    -0.6210    21.2100 ca         1 Q4R      -0.076000
     26 N2           8.2200     0.2680    18.9690 nb         1 Q4R      -0.643000
     27 H1           7.6750    -1.3300    23.1300 hn         1 Q4R       0.147000
     28 H2           8.4870     1.4020    20.6700 h4         1 Q4R       0.053100
     29 H3           7.9130    -1.0340    17.3770 h4         1 Q4R       0.022100
     30 H4           7.2550    -2.9720    18.7980 ha         1 Q4R       0.120000
     31 H5           7.8840    -3.3220    22.2470 hc         1 Q4R       0.045033
     32 H6           6.1860    -2.8230    22.1380 hc         1 Q4R       0.045033
     33 H7           6.8560    -3.9520    20.9570 hc         1 Q4R       0.045033
     34 H8          11.3080     0.6370    22.6140 ha         1 Q4R       0.149000
     35 H9           9.6830    -5.6670    25.6370 ha         1 Q4R       0.130000
     36 H10          9.6630    -3.8070    27.3090 h4         1 Q4R       0.025100
     37 H11         10.2360    -5.1460    23.2460 ha         1 Q4R       0.122000
     38 H12         10.8330    -3.4920    21.5590 ha         1 Q4R       0.119000
     39 H13         11.3430    -1.1510    20.9250 ha         1 Q4R       0.125000
     40 H14          9.4650     2.6840    27.0180 h1         1 Q4R       0.052700
     41 H15          8.8640     3.0190    25.3780 h1         1 Q4R       0.052700
     42 H16          7.7610     2.4050    26.6270 h1         1 Q4R       0.052700
     43 H17          7.0580     0.5380    25.3430 h1         1 Q4R       0.063200
     44 H18          8.1400    -0.7870    25.0460 h1         1 Q4R       0.063200
@<TRIPOS>BOND
     1     1    23 1   
     2     1    25 1   
     3     1    27 1   
     4     2    11 ar  
     5     2    16 ar  
     6     3    25 ar  
     7     3    26 ar  
     8     3    28 1   
     9     4     5 ar  
    10     4    26 ar  
    11     4    29 1   
    12     5     6 ar  
    13     5    30 1   
    14     6     7 1   
    15     6    25 ar  
    16     7    31 1   
    17     7    32 1   
    18     7    33 1   
    19     8    15 ar  
    20     8    19 ar  
    21     8    34 1   
    22     9    11 ar  
    23     9    17 ar  
    24     9    18 ar  
    25    10    16 ar  
    26    10    17 ar  
    27    10    35 1   
    28    11    15 ar  
    29    12    13 2   
    30    13    14 2   
    31    13    15 1   
    32    13    20 1   
    33    16    36 1   
    34    17    37 1   
    35    18    19 ar  
    36    18    38 1   
    37    19    39 1   
    38    20    21 1   
    39    20    22 1   
    40    21    40 1   
    41    21    41 1   
    42    21    42 1   
    43    22    23 1   
    44    22    43 1   
    45    22    44 1   
    46    23    24 2   
@<TRIPOS>SUBSTRUCTURE
     1 Q4R         1 TEMP              0 ****  ****    0 ROOT
