@<TRIPOS>MOLECULE
Q4S
   96   101     1     0     0
SMALL
abcg2


@<TRIPOS>ATOM
      1 C4           3.6160     1.7630    -2.2860 c6         1 Q4S      -0.062400
      2 C3           4.7920     0.9360    -2.7690 c6         1 Q4S      -0.075400
      3 C2           6.0810     1.5180    -2.2240 c6         1 Q4S      -0.035100
      4 C13          6.0230     1.6790    -0.7290 ca         1 Q4S      -0.052300
      5 C18          7.2230     1.7150    -0.0200 ca         1 Q4S      -0.109000
      6 C17          7.2230     1.8480     1.3540 ca         1 Q4S       0.125000
      7 CL1          8.7310     1.8920     2.2110 cl         1 Q4S      -0.207000
      8 C16          6.0340     1.9340     2.0570 ca         1 Q4S      -0.107000
      9 C15          4.8450     1.8980     1.3480 ca         1 Q4S      -0.104000
     10 C14          4.8070     1.7820    -0.0440 ca         1 Q4S      -0.070300
     11 C1           3.4610     1.7540    -0.7590 c6         1 Q4S      -0.039700
     12 C12          2.7130     0.4830    -0.2870 c3         1 Q4S       0.231800
     13 C11          2.6720     2.9930    -0.3410 c3         1 Q4S       0.171600
     14 O1           1.4160     3.0510    -0.9930 os         1 Q4S      -0.353100
     15 C10          0.3820     2.3620    -0.4430 ca         1 Q4S       0.081100
     16 C5          -0.6780     3.1060     0.0540 ca         1 Q4S      -0.102000
     17 C6          -1.8420     2.4930     0.4750 ca         1 Q4S      -0.103000
     18 C7          -1.9540     1.1070     0.4040 ca         1 Q4S      -0.096300
     19 C8          -0.8700     0.3620    -0.0310 ca         1 Q4S      -0.120000
     20 C9           0.3290     0.9570    -0.4530 ca         1 Q4S       0.287000
     21 N1           1.4230     0.2180    -0.8930 nh         1 Q4S      -0.841400
     22 C19          1.2230    -1.0610    -1.5650 c3         1 Q4S       0.237800
     23 C20          1.8460    -2.2840    -0.8780 cy         1 Q4S      -0.094700
     24 C31          3.2460    -2.6390    -1.4490 cy         1 Q4S      -0.084400
     25 C30          2.5890    -3.7100    -2.3340 cy         1 Q4S      -0.087400
     26 C21          1.3290    -3.6340    -1.4470 cy         1 Q4S      -0.067700
     27 C22          1.2630    -4.8020    -0.4630 c3         1 Q4S       0.215500
     28 O4           2.4490    -4.8300     0.2930 os         1 Q4S      -0.452000
     29 C34          2.8230    -6.1090     0.7380 c3         1 Q4S       0.144900
     30 C29          0.0370    -4.8500     0.4090 c2         1 Q4S      -0.253200
     31 C28          0.0100    -4.6190     1.7190 c2         1 Q4S      -0.191200
     32 C27         -1.1610    -4.9320     2.6000 c3         1 Q4S      -0.061200
     33 C26         -2.0060    -3.7420     3.0410 c3         1 Q4S       0.100000
     34 N2          -2.6240    -3.0210     1.9360 n          1 Q4S      -0.396800
     35 C32         -3.4570    -3.7740     1.0140 c3         1 Q4S       0.084300
     36 C25         -2.5910    -1.6790     1.9050 c          1 Q4S       0.608100
     37 O3          -2.0020    -0.9960     2.7420 o          1 Q4S      -0.620100
     38 C24         -3.3640    -1.0310     0.7740 c3         1 Q4S      -0.189400
     39 C23         -3.2960     0.4990     0.7910 c3         1 Q4S       0.178300
     40 O2          -3.7390     1.0040     2.0210 oh         1 Q4S      -0.677000
     41 C33         -4.2810     0.9670    -0.2940 c          1 Q4S       0.632100
     42 O5          -4.1640     0.6200    -1.4470 o          1 Q4S      -0.567100
     43 N3          -5.2800     1.7780     0.1470 ns         1 Q4S      -0.585300
     44 S1          -6.4360     2.4850    -0.8640 s6         1 Q4S       1.310900
     45 O6          -7.2190     3.2670     0.0690 o          1 Q4S      -0.535000
     46 O7          -5.7590     3.1290    -1.9640 o          1 Q4S      -0.535000
     47 N4          -7.3680     1.2940    -1.4540 n3         1 Q4S      -0.769500
     48 C36         -8.0580     0.4430    -0.4940 c3         1 Q4S       0.196100
     49 C35         -7.0750     0.6660    -2.7360 c3         1 Q4S       0.196100
     50 H1           3.7650     2.7940    -2.6280 hc         1 Q4S       0.058700
     51 H2           2.6850     1.4230    -2.7410 hc         1 Q4S       0.058700
     52 H3           4.6960    -0.1040    -2.4470 hc         1 Q4S       0.043700
     53 H4           4.8160     0.9210    -3.8600 hc         1 Q4S       0.043700
     54 H5           6.9370     0.8940    -2.4900 hc         1 Q4S       0.051700
     55 H6           6.2640     2.4960    -2.6840 hc         1 Q4S       0.051700
     56 H7           8.1590     1.6290    -0.5580 ha         1 Q4S       0.127000
     57 H8           6.0260     2.0260     3.1340 ha         1 Q4S       0.130000
     58 H9           3.9280     1.9600     1.9200 ha         1 Q4S       0.117000
     59 H10          3.3610    -0.3690    -0.4790 h1         1 Q4S       0.047200
     60 H11          2.6050     0.5310     0.8030 h1         1 Q4S       0.047200
     61 H12          2.5270     3.0350     0.7440 h1         1 Q4S       0.053200
     62 H13          3.2130     3.8930    -0.6410 h1         1 Q4S       0.053200
     63 H14         -0.5980     4.1860     0.0610 ha         1 Q4S       0.127000
     64 H15         -2.6610     3.1010     0.8360 ha         1 Q4S       0.124000
     65 H16         -0.9380    -0.7180    -0.0500 ha         1 Q4S       0.112000
     66 H17          0.1520    -1.2170    -1.6880 h1         1 Q4S       0.046200
     67 H18          1.6190    -0.9900    -2.5860 h1         1 Q4S       0.046200
     68 H19          1.7730    -2.1810     0.2090 hc         1 Q4S       0.078700
     69 H20          3.7710    -1.8450    -1.9800 hc         1 Q4S       0.056700
     70 H21          3.9170    -3.0580    -0.7030 hc         1 Q4S       0.056700
     71 H22          2.4030    -3.3560    -3.3490 hc         1 Q4S       0.049200
     72 H23          3.0860    -4.6790    -2.3980 hc         1 Q4S       0.049200
     73 H24          0.3740    -3.5850    -1.9800 hc         1 Q4S       0.061700
     74 H25          1.2140    -5.7050    -1.0970 h1         1 Q4S       0.034700
     75 H26          3.7590    -6.0080     1.2870 h1         1 Q4S       0.029367
     76 H27          2.0820    -6.5600     1.4060 h1         1 Q4S       0.029367
     77 H28          2.9890    -6.7980    -0.0990 h1         1 Q4S       0.029367
     78 H29         -0.8630    -5.2120    -0.0820 ha         1 Q4S       0.163000
     79 H30          0.9060    -4.2560     2.2150 ha         1 Q4S       0.187000
     80 H31         -1.7870    -5.6880     2.1210 hc         1 Q4S       0.047700
     81 H32         -0.7940    -5.3990     3.5180 hc         1 Q4S       0.047700
     82 H33         -2.7900    -4.1030     3.7150 h1         1 Q4S       0.062700
     83 H34         -1.3950    -3.0410     3.6020 h1         1 Q4S       0.062700
     84 H35         -4.5100    -3.5000     1.0960 h1         1 Q4S       0.041367
     85 H36         -3.1440    -3.6430    -0.0220 h1         1 Q4S       0.041367
     86 H37         -3.3840    -4.8320     1.2400 h1         1 Q4S       0.041367
     87 H38         -3.0500    -1.4230    -0.1940 hc         1 Q4S       0.079200
     88 H39         -4.4160    -1.3200     0.8750 hc         1 Q4S       0.079200
     89 H40         -3.1300     0.6530     2.6890 ho         1 Q4S       0.497000
     90 H41         -5.3360     2.0080     1.1330 hn         1 Q4S       0.370500
     91 H42         -8.9780     0.0880    -0.9560 h1         1 Q4S       0.051867
     92 H43         -7.4540    -0.4220    -0.2120 h1         1 Q4S       0.051867
     93 H44         -8.3280     0.9940     0.4030 h1         1 Q4S       0.051867
     94 H45         -6.5910     1.3630    -3.4110 h1         1 Q4S       0.051867
     95 H46         -6.4490    -0.2190    -2.6260 h1         1 Q4S       0.051867
     96 H47         -8.0250     0.3700    -3.1780 h1         1 Q4S       0.051867
@<TRIPOS>BOND
     1     1     2 1   
     2     1    11 1   
     3     1    50 1   
     4     1    51 1   
     5     2     3 1   
     6     2    52 1   
     7     2    53 1   
     8     3     4 1   
     9     3    54 1   
    10     3    55 1   
    11     4     5 ar  
    12     4    10 ar  
    13     5     6 ar  
    14     5    56 1   
    15     6     7 1   
    16     6     8 ar  
    17     8     9 ar  
    18     8    57 1   
    19     9    10 ar  
    20     9    58 1   
    21    10    11 1   
    22    11    12 1   
    23    11    13 1   
    24    12    21 1   
    25    12    59 1   
    26    12    60 1   
    27    13    14 1   
    28    13    61 1   
    29    13    62 1   
    30    14    15 1   
    31    15    16 ar  
    32    15    20 ar  
    33    16    17 ar  
    34    16    63 1   
    35    17    18 ar  
    36    17    64 1   
    37    18    19 ar  
    38    18    39 1   
    39    19    20 ar  
    40    19    65 1   
    41    20    21 1   
    42    21    22 1   
    43    22    23 1   
    44    22    66 1   
    45    22    67 1   
    46    23    24 1   
    47    23    26 1   
    48    23    68 1   
    49    24    25 1   
    50    24    69 1   
    51    24    70 1   
    52    25    26 1   
    53    25    71 1   
    54    25    72 1   
    55    26    27 1   
    56    26    73 1   
    57    27    28 1   
    58    27    30 1   
    59    27    74 1   
    60    28    29 1   
    61    29    75 1   
    62    29    76 1   
    63    29    77 1   
    64    30    31 2   
    65    30    78 1   
    66    31    32 1   
    67    31    79 1   
    68    32    33 1   
    69    32    80 1   
    70    32    81 1   
    71    33    34 1   
    72    33    82 1   
    73    33    83 1   
    74    34    35 1   
    75    34    36 1   
    76    35    84 1   
    77    35    85 1   
    78    35    86 1   
    79    36    37 2   
    80    36    38 1   
    81    38    39 1   
    82    38    87 1   
    83    38    88 1   
    84    39    40 1   
    85    39    41 1   
    86    40    89 1   
    87    41    42 2   
    88    41    43 1   
    89    43    44 1   
    90    43    90 1   
    91    44    45 2   
    92    44    46 2   
    93    44    47 1   
    94    47    48 1   
    95    47    49 1   
    96    48    91 1   
    97    48    92 1   
    98    48    93 1   
    99    49    94 1   
   100    49    95 1   
   101    49    96 1   
@<TRIPOS>SUBSTRUCTURE
     1 Q4S         1 TEMP              0 ****  ****    0 ROOT
