@<TRIPOS>MOLECULE
Q4S
   96   101     1     0     0
SMALL
No Charge or Current Charge


@<TRIPOS>ATOM
      1 C4           3.5890     1.9120    -1.9830 c6         1 Q4S      -0.062400
      2 C3           4.6180     0.9880    -2.6510 c6         1 Q4S      -0.075400
      3 C2           6.0350     1.3600    -2.1850 c6         1 Q4S      -0.035100
      4 C13          6.1510     1.5310    -0.6680 ca         1 Q4S      -0.052300
      5 C18          7.4400     1.4920    -0.0990 ca         1 Q4S      -0.109000
      6 C17          7.6150     1.6360     1.2830 ca         1 Q4S       0.125000
      7 Cl1          9.2300     1.5790     1.9770 cl         1 Q4S      -0.207000
      8 C16          6.5020     1.8180     2.1130 ca         1 Q4S      -0.107000
      9 C15          5.2130     1.8650     1.5590 ca         1 Q4S      -0.104000
     10 C14          5.0140     1.7390     0.1620 ca         1 Q4S      -0.070300
     11 C1           3.5700     1.7760    -0.4210 c6         1 Q4S      -0.039700
     12 C12          2.8460     0.4820     0.0680 c3         1 Q4S       0.231800
     13 C11          2.7940     2.9790     0.1870 c3         1 Q4S       0.171600
     14 O1           1.5650     3.2140    -0.5140 os         1 Q4S      -0.353100
     15 C10          0.4270     2.4760    -0.2620 ca         1 Q4S       0.081100
     16 C5          -0.7420     3.2320    -0.0990 ca         1 Q4S      -0.102000
     17 C6          -1.9720     2.6150     0.1420 ca         1 Q4S      -0.103000
     18 C7          -2.0670     1.2140     0.2240 ca         1 Q4S      -0.096300
     19 C8          -0.8870     0.4460     0.0470 ca         1 Q4S      -0.120000
     20 C9           0.3720     1.0440    -0.2130 ca         1 Q4S       0.287000
     21 N1           1.4920     0.1840    -0.4660 nh         1 Q4S      -0.841400
     22 C19          1.3510    -1.0130    -1.3520 c3         1 Q4S       0.237800
     23 C20          1.8880    -2.3410    -0.7400 cy         1 Q4S      -0.094700
     24 C31          3.3210    -2.8030    -1.2000 cy         1 Q4S      -0.084400
     25 C30          2.5990    -3.5990    -2.3370 cy         1 Q4S      -0.087400
     26 C21          1.3740    -3.7060    -1.3640 cy         1 Q4S      -0.067700
     27 C22          1.2300    -5.0160    -0.5260 c3         1 Q4S       0.215500
     28 O4           2.4920    -5.3790     0.0680 os         1 Q4S      -0.452000
     29 C34          2.5820    -6.7300     0.5560 c3         1 Q4S       0.144900
     30 C29          0.1840    -4.9650     0.5720 c2         1 Q4S      -0.253200
     31 C28          0.3280    -4.3990     1.7830 c2         1 Q4S      -0.191200
     32 C27         -0.6590    -4.5180     2.9280 c3         1 Q4S      -0.061200
     33 C26         -1.4960    -3.2370     3.1520 c3         1 Q4S       0.100000
     34 N2          -2.3340    -2.7800     2.0080 n          1 Q4S      -0.396800
     35 C32         -3.0140    -3.8030     1.1700 c3         1 Q4S       0.084300
     36 C25         -2.7670    -1.4370     1.9720 c          1 Q4S       0.608100
     37 O3          -2.5600    -0.6810     2.9150 o          1 Q4S      -0.620100
     38 C24         -3.4680    -0.9340     0.6980 c3         1 Q4S      -0.189400
     39 C23         -3.4650     0.6000     0.4620 c3         1 Q4S       0.178300
     40 O2          -4.0070     1.1940     1.6650 oh         1 Q4S      -0.677000
     41 C33         -4.3660     0.9210    -0.7950 c          1 Q4S       0.632100
     42 O5          -4.1070     0.5090    -1.9190 o          1 Q4S      -0.567100
     43 N3          -5.4610     1.6780    -0.5200 ns         1 Q4S      -0.585300
     44 S1          -6.6160     2.2910    -1.5360 s6         1 Q4S       1.310900
     45 O6          -7.1240     3.5040    -0.8920 o          1 Q4S      -0.535000
     46 O7          -6.1570     2.2940    -2.9260 o          1 Q4S      -0.535000
     47 N4          -7.8560     1.1130    -1.3910 n3         1 Q4S      -0.769500
     48 C36         -7.4460    -0.2800    -1.6760 c3         1 Q4S       0.196100
     49 C35         -9.1080     1.4860    -2.0800 c3         1 Q4S       0.196100
     50 H1           3.8230     2.9500    -2.2580 hc         1 Q4S       0.058700
     51 H2           2.5950     1.7120    -2.4060 hc         1 Q4S       0.058700
     52 H3           4.4030    -0.0570    -2.4080 hc         1 Q4S       0.043700
     53 H4           4.5510     1.0750    -3.7440 hc         1 Q4S       0.043700
     54 H5           6.7420     0.5940    -2.5330 hc         1 Q4S       0.051700
     55 H6           6.3400     2.2990    -2.6690 hc         1 Q4S       0.051700
     56 H7           8.3110     1.3450    -0.7330 ha         1 Q4S       0.127000
     57 H8           6.6380     1.9200     3.1870 ha         1 Q4S       0.130000
     58 H9           4.3710     1.9930     2.2330 ha         1 Q4S       0.117000
     59 H10          3.5250    -0.3490    -0.1530 h1         1 Q4S       0.047200
     60 H11          2.7830     0.5130     1.1640 h1         1 Q4S       0.047200
     61 H12          2.5980     2.8250     1.2560 h1         1 Q4S       0.053200
     62 H13          3.4330     3.8670     0.0950 h1         1 Q4S       0.053200
     63 H14         -0.6900     4.3160    -0.1590 ha         1 Q4S       0.127000
     64 H15         -2.8580     3.2340     0.2660 ha         1 Q4S       0.124000
     65 H16         -0.9320    -0.6350     0.1030 ha         1 Q4S       0.112000
     66 H17          0.2980    -1.1750    -1.6140 h1         1 Q4S       0.046200
     67 H18          1.8750    -0.8280    -2.3000 h1         1 Q4S       0.046200
     68 H19          1.7560    -2.2830     0.3450 hc         1 Q4S       0.078700
     69 H20          4.0050    -2.0270    -1.5440 hc         1 Q4S       0.056700
     70 H21          3.8650    -3.4110    -0.4710 hc         1 Q4S       0.056700
     71 H22          2.4070    -3.0170    -3.2460 hc         1 Q4S       0.049200
     72 H23          3.0690    -4.5450    -2.6280 hc         1 Q4S       0.049200
     73 H24          0.4150    -3.5920    -1.8810 hc         1 Q4S       0.061700
     74 H25          0.9350    -5.7930    -1.2450 h1         1 Q4S       0.034700
     75 H26          3.5860    -6.9240     0.9550 h1         1 Q4S       0.029367
     76 H27          1.8580    -6.9110     1.3610 h1         1 Q4S       0.029367
     77 H28          2.3920    -7.4500    -0.2510 h1         1 Q4S       0.029367
     78 H29         -0.7180    -5.5270     0.3340 ha         1 Q4S       0.163000
     79 H30          1.2510    -3.8750     2.0390 ha         1 Q4S       0.187000
     80 H31         -1.3180    -5.3810     2.7830 hc         1 Q4S       0.047700
     81 H32         -0.1090    -4.7320     3.8530 hc         1 Q4S       0.047700
     82 H33         -2.1550    -3.3950     4.0160 h1         1 Q4S       0.062700
     83 H34         -0.8000    -2.4310     3.4190 h1         1 Q4S       0.062700
     84 H35         -4.0550    -3.5160     0.9790 h1         1 Q4S       0.041367
     85 H36         -2.4890    -3.9030     0.2120 h1         1 Q4S       0.041367
     86 H37         -3.0380    -4.7760     1.6730 h1         1 Q4S       0.041367
     87 H38         -3.0840    -1.4760    -0.1730 hc         1 Q4S       0.079200
     88 H39         -4.5010    -1.2960     0.7500 hc         1 Q4S       0.079200
     89 H40         -3.4900     0.7750     2.4010 ho         1 Q4S       0.497000
     90 H41         -5.6010     1.9720     0.4310 hn         1 Q4S       0.370500
     91 H42         -8.2920    -0.9670    -1.5430 h1         1 Q4S       0.051867
     92 H43         -7.0840    -0.3830    -2.7080 h1         1 Q4S       0.051867
     93 H44         -6.6530    -0.6140    -0.9950 h1         1 Q4S       0.051867
     94 H45         -9.4700     2.4660    -1.7410 h1         1 Q4S       0.051867
     95 H46         -8.9630     1.5310    -3.1680 h1         1 Q4S       0.051867
     96 H47         -9.9000     0.7540    -1.8730 h1         1 Q4S       0.051867
@<TRIPOS>BOND
     1     1     2 1   
     2     1    11 1   
     3     1    50 1   
     4     1    51 1   
     5     2     3 1   
     6     2    52 1   
     7     2    53 1   
     8     3     4 1   
     9     3    54 1   
    10     3    55 1   
    11     4     5 ar  
    12     4    10 ar  
    13     5     6 ar  
    14     5    56 1   
    15     6     7 1   
    16     6     8 ar  
    17     8     9 ar  
    18     8    57 1   
    19     9    10 ar  
    20     9    58 1   
    21    10    11 1   
    22    11    12 1   
    23    11    13 1   
    24    12    21 1   
    25    12    59 1   
    26    12    60 1   
    27    13    14 1   
    28    13    61 1   
    29    13    62 1   
    30    14    15 1   
    31    15    16 ar  
    32    15    20 ar  
    33    16    17 ar  
    34    16    63 1   
    35    17    18 ar  
    36    17    64 1   
    37    18    19 ar  
    38    18    39 1   
    39    19    20 ar  
    40    19    65 1   
    41    20    21 1   
    42    21    22 1   
    43    22    23 1   
    44    22    66 1   
    45    22    67 1   
    46    23    24 1   
    47    23    26 1   
    48    23    68 1   
    49    24    25 1   
    50    24    69 1   
    51    24    70 1   
    52    25    26 1   
    53    25    71 1   
    54    25    72 1   
    55    26    27 1   
    56    26    73 1   
    57    27    28 1   
    58    27    30 1   
    59    27    74 1   
    60    28    29 1   
    61    29    75 1   
    62    29    76 1   
    63    29    77 1   
    64    30    31 2   
    65    30    78 1   
    66    31    32 1   
    67    31    79 1   
    68    32    33 1   
    69    32    80 1   
    70    32    81 1   
    71    33    34 1   
    72    33    82 1   
    73    33    83 1   
    74    34    35 1   
    75    34    36 1   
    76    35    84 1   
    77    35    85 1   
    78    35    86 1   
    79    36    37 2   
    80    36    38 1   
    81    38    39 1   
    82    38    87 1   
    83    38    88 1   
    84    39    40 1   
    85    39    41 1   
    86    40    89 1   
    87    41    42 2   
    88    41    43 1   
    89    43    44 1   
    90    43    90 1   
    91    44    45 2   
    92    44    46 2   
    93    44    47 1   
    94    47    48 1   
    95    47    49 1   
    96    48    91 1   
    97    48    92 1   
    98    48    93 1   
    99    49    94 1   
   100    49    95 1   
   101    49    96 1   
@<TRIPOS>SUBSTRUCTURE
     1 Q4S         1 TEMP              0 ****  ****    0 ROOT
