@<TRIPOS>MOLECULE
Q4T
   57    60     1     0     0
SMALL
bcc


@<TRIPOS>ATOM
      1 C1           2.1120     6.1800    17.6820 ca         1 Q4T       0.157900
      2 C2           2.4250     5.1100    16.8710 ca         1 Q4T      -0.147000
      3 C3           2.1970     3.8300    17.3480 ca         1 Q4T       0.018400
      4 C11          0.0170     9.2200    20.1930 ca         1 Q4T      -0.169600
      5 C12          0.6730     9.3820    21.4100 ca         1 Q4T      -0.055000
      6 C13         -1.0250    10.2170    19.7810 c          1 Q4T       0.685700
      7 C16         -1.7100    11.5940    17.8760 ca         1 Q4T       0.057600
      8 C17         -1.1090    12.6290    17.1440 ca         1 Q4T      -0.023300
      9 C18         -1.9230    13.4670    16.3860 ca         1 Q4T      -0.167000
     10 C19         -3.2920    13.2890    16.3890 ca         1 Q4T       0.099900
     11 C20         -3.8980    12.2980    17.1330 ca         1 Q4T      -0.183000
     12 C21         -3.0940    11.4460    17.8740 ca         1 Q4T      -0.120000
     13 C22          0.3760    12.8670    17.1770 c3         1 Q4T      -0.186100
     14 C23          1.2260    11.8320    16.3980 c          1 Q4T       0.937600
     15 C27          0.3850     1.9790    19.8150 c6         1 Q4T       0.116100
     16 C28         -0.9060     2.2440    19.0410 c6         1 Q4T       0.124800
     17 C30         -0.9280     0.0150    18.1260 c6         1 Q4T       0.151800
     18 C4           1.6890     3.6100    18.6290 ca         1 Q4T       0.106100
     19 C5           1.3980     4.7180    19.4180 ca         1 Q4T      -0.154000
     20 C6           1.5940     6.0150    18.9570 cp         1 Q4T      -0.039000
     21 C7           1.6320     8.4730    21.8240 ca         1 Q4T      -0.169000
     22 C8           1.9410     7.3800    21.0260 ca         1 Q4T      -0.080000
     23 C9           1.2910     7.1790    19.8130 cp         1 Q4T      -0.105000
     24 C10          0.3280     8.1040    19.4350 ca         1 Q4T       0.209900
     25 N14         -0.8670    10.6840    18.5320 ns         1 Q4T      -0.485100
     26 O15         -1.8920    10.5690    20.5640 o          1 Q4T      -0.636100
     27 O24          2.0330    12.2600    15.5680 o          1 Q4T      -0.810300
     28 O25          1.0390    10.6220    16.6980 o          1 Q4T      -0.810300
     29 O26          1.5340     2.3390    19.0310 os         1 Q4T      -0.329900
     30 N29         -1.0650     1.4370    17.8470 n7         1 Q4T      -0.789200
     31 C31          0.3640    -0.3520    18.8530 c6         1 Q4T      -0.111400
     32 C32          0.5280     0.4950    20.1120 c6         1 Q4T      -0.067400
     33 F33         -4.0560    14.1060    15.6430 f          1 Q4T      -0.167900
     34 F34         -0.3560     7.8670    18.3090 f          1 Q4T      -0.114900
     35 CL1          2.5410     2.4760    16.3370 cl         1 Q4T      -0.105400
     36 F36          2.3330     7.4190    17.2220 f          1 Q4T      -0.092900
     37 H1           2.8290     5.2710    15.8800 ha         1 Q4T       0.169000
     38 H2           0.4360    10.2370    22.0300 ha         1 Q4T       0.146000
     39 H3          -1.4840    14.2680    15.8040 ha         1 Q4T       0.143000
     40 H4          -4.9740    12.1770    17.1250 ha         1 Q4T       0.130000
     41 H5          -3.5530    10.6430    18.4330 ha         1 Q4T       0.138000
     42 H6           0.7130    12.8480    18.2200 hc         1 Q4T       0.041200
     43 H7           0.5840    13.8670    16.7990 hc         1 Q4T       0.041200
     44 H8           0.3790     2.5420    20.7540 h1         1 Q4T       0.047700
     45 H9          -0.9940     3.3000    18.7730 h1         1 Q4T       0.063700
     46 H10         -1.7380     2.0340    19.7220 h1         1 Q4T       0.063700
     47 H11         -1.7850    -0.2940    18.7350 h1         1 Q4T       0.046200
     48 H12         -1.0040    -0.5330    17.1840 h1         1 Q4T       0.046200
     49 H13          0.9990     4.5840    20.4160 ha         1 Q4T       0.141000
     50 H14          2.1450     8.6160    22.7650 ha         1 Q4T       0.129000
     51 H15          2.6990     6.6740    21.3400 ha         1 Q4T       0.128000
     52 H16         -0.0130    10.4740    17.9680 hn         1 Q4T       0.414500
     53 H18         -0.3750     1.7100    17.1580 hn         1 Q4T       0.367800
     54 H20          0.3550    -1.4120    19.1170 hc         1 Q4T       0.049200
     55 H21          1.2150    -0.2050    18.1830 hc         1 Q4T       0.049200
     56 H22         -0.2510     0.2330    20.8340 hc         1 Q4T       0.048700
     57 H23          1.4840     0.2990    20.6010 hc         1 Q4T       0.048700
@<TRIPOS>BOND
     1     1     2 ar  
     2     1    20 ar  
     3     1    36 1   
     4     2     3 ar  
     5     2    37 1   
     6     3    18 ar  
     7     3    35 1   
     8     4     5 ar  
     9     4     6 1   
    10     4    24 ar  
    11     5    21 ar  
    12     5    38 1   
    13     6    25 1   
    14     6    26 2   
    15     7     8 ar  
    16     7    12 ar  
    17     7    25 1   
    18     8     9 ar  
    19     8    13 1   
    20     9    10 ar  
    21     9    39 1   
    22    10    11 ar  
    23    10    33 1   
    24    11    12 ar  
    25    11    40 1   
    26    12    41 1   
    27    13    14 1   
    28    13    42 1   
    29    13    43 1   
    30    14    27 1   
    31    14    28 1   
    32    15    16 1   
    33    15    29 1   
    34    15    32 1   
    35    15    44 1   
    36    16    30 1   
    37    16    45 1   
    38    16    46 1   
    39    17    30 1   
    40    17    31 1   
    41    17    47 1   
    42    17    48 1   
    43    18    19 ar  
    44    18    29 1   
    45    19    20 ar  
    46    19    49 1   
    47    20    23 1   
    48    21    22 ar  
    49    21    50 1   
    50    22    23 ar  
    51    22    51 1   
    52    23    24 ar  
    53    24    34 1   
    54    25    52 1   
    55    30    53 1   
    56    31    32 1   
    57    31    54 1   
    58    31    55 1   
    59    32    56 1   
    60    32    57 1   
@<TRIPOS>SUBSTRUCTURE
     1 Q4T         1 TEMP              0 ****  ****    0 ROOT
