@<TRIPOS>MOLECULE
Q4T
   57    60     1     0     0
SMALL
No Charge or Current Charge


@<TRIPOS>ATOM
      1 C1           2.4700     6.3760    17.8710 ca         1 Q4T       0.193000
      2 C2           2.9210     5.3480    17.0320 ca         1 Q4T      -0.129000
      3 C3           2.6160     4.0110    17.3310 ca         1 Q4T       0.110000
      4 C11         -0.0820     9.2260    20.3610 ca         1 Q4T      -0.169600
      5 C12          0.2730     9.1470    21.7270 ca         1 Q4T      -0.037000
      6 C13         -0.9840    10.3530    19.9150 c          1 Q4T       0.618700
      7 C16         -1.6570    11.7260    17.8820 ca         1 Q4T      -0.035000
      8 C17         -1.0530    12.5950    16.9360 ca         1 Q4T      -0.023300
      9 C18         -1.8610    13.4950    16.2100 ca         1 Q4T      -0.149000
     10 C19         -3.2470    13.5330    16.4180 ca         1 Q4T       0.135000
     11 C20         -3.8460    12.6780    17.3510 ca         1 Q4T      -0.165000
     12 C21         -3.0540    11.7760    18.0800 ca         1 Q4T      -0.102000
     13 C22          0.4630    12.6100    16.7080 c3         1 Q4T      -0.186100
     14 C23          0.8780    11.4160    15.8420 c          1 Q4T       0.727000
     15 C27          0.5990     1.9280    19.7030 c6         1 Q4T       0.139300
     16 C28         -0.8490     2.2760    19.2290 c6         1 Q4T       0.124800
     17 C30         -1.1670     0.0480    18.2120 c6         1 Q4T       0.151800
     18 C4           1.8550     3.6900    18.4760 ca         1 Q4T       0.106100
     19 C5           1.4130     4.7330    19.3230 ca         1 Q4T      -0.136000
     20 C6           1.7020     6.0880    19.0280 cp         1 Q4T      -0.039000
     21 C7           1.0920     8.1090    22.1960 ca         1 Q4T      -0.151000
     22 C8           1.5610     7.1280    21.3120 ca         1 Q4T      -0.062000
     23 C9           1.2180     7.1670    19.9420 cp         1 Q4T      -0.105000
     24 C10          0.3850     8.2210    19.4810 ca         1 Q4T       0.245000
     25 N14         -0.8680    10.7890    18.6040 ns         1 Q4T      -0.159000
     26 O15         -1.7810    10.8590    20.7000 o          1 Q4T      -0.636100
     27 O24          0.8260    11.5380    14.6270 o          1 Q4T      -0.705000
     28 O25          1.1140    10.3630    16.4120 o          1 Q4T      -0.705000
     29 O26          1.5900     2.3530    18.7350 os         1 Q4T      -0.353100
     30 N29         -1.2390     1.5140    18.0070 n7         1 Q4T      -0.844400
     31 C31          0.2540    -0.3830    18.6520 c6         1 Q4T      -0.111400
     32 C32          0.7150     0.3960    19.9130 c6         1 Q4T      -0.067400
     33 F33         -4.0080    14.3990    15.7160 f          1 Q4T      -0.203000
     34 F34         -0.0360     8.1980    18.1960 f          1 Q4T      -0.150000
     35 Cl1          3.1980     2.7440    16.2500 cl         1 Q4T      -0.197000
     36 F36          2.8110     7.6500    17.5760 f          1 Q4T      -0.128000
     37 H1           3.5130     5.5880    16.1530 ha         1 Q4T       0.151000
     38 H2          -0.0820     9.8980    22.4310 ha         1 Q4T       0.128000
     39 H3          -1.4170    14.1700    15.4840 ha         1 Q4T       0.125000
     40 H4          -4.9220    12.7100    17.5040 ha         1 Q4T       0.112000
     41 H5          -3.5360    11.1050    18.7880 ha         1 Q4T       0.120000
     42 H6           0.9420    12.5470    17.6920 hc         1 Q4T       0.041200
     43 H7           0.7080    13.5420    16.1860 hc         1 Q4T       0.041200
     44 H8           0.8090     2.4160    20.6650 h1         1 Q4T       0.047700
     45 H9          -0.9300     3.3550    19.0300 h1         1 Q4T       0.063700
     46 H10         -1.5550     2.0490    20.0420 h1         1 Q4T       0.063700
     47 H11         -1.8960    -0.2520    18.9800 h1         1 Q4T       0.046200
     48 H12         -1.4370    -0.4700    17.2800 h1         1 Q4T       0.046200
     49 H13          0.8380     4.5210    20.2190 ha         1 Q4T       0.123000
     50 H14          1.3610     8.0650    23.2490 ha         1 Q4T       0.111000
     51 H15          2.1940     6.3280    21.6890 ha         1 Q4T       0.110000
     52 H16         -0.1220    10.3590    18.0670 hn         1 Q4T       0.248000
     53 H18         -0.5680     1.7580    17.2670 hn         1 Q4T       0.423000
     54 H20          0.2680    -1.4630    18.8540 hc         1 Q4T       0.049200
     55 H21          0.9630    -0.2140    17.8290 hc         1 Q4T       0.049200
     56 H22          0.1000     0.0990    20.7730 hc         1 Q4T       0.048700
     57 H23          1.7500     0.1280    20.1660 hc         1 Q4T       0.048700
@<TRIPOS>BOND
     1     1     2 ar  
     2     1    20 ar  
     3     1    36 1   
     4     2     3 ar  
     5     2    37 1   
     6     3    18 ar  
     7     3    35 1   
     8     4     5 ar  
     9     4     6 1   
    10     4    24 ar  
    11     5    21 ar  
    12     5    38 1   
    13     6    25 1   
    14     6    26 2   
    15     7     8 ar  
    16     7    12 ar  
    17     7    25 1   
    18     8     9 ar  
    19     8    13 1   
    20     9    10 ar  
    21     9    39 1   
    22    10    11 ar  
    23    10    33 1   
    24    11    12 ar  
    25    11    40 1   
    26    12    41 1   
    27    13    14 1   
    28    13    42 1   
    29    13    43 1   
    30    14    27 1   
    31    14    28 1   
    32    15    16 1   
    33    15    29 1   
    34    15    32 1   
    35    15    44 1   
    36    16    30 1   
    37    16    45 1   
    38    16    46 1   
    39    17    30 1   
    40    17    31 1   
    41    17    47 1   
    42    17    48 1   
    43    18    19 ar  
    44    18    29 1   
    45    19    20 ar  
    46    19    49 1   
    47    20    23 1   
    48    21    22 ar  
    49    21    50 1   
    50    22    23 ar  
    51    22    51 1   
    52    23    24 ar  
    53    24    34 1   
    54    25    52 1   
    55    30    53 1   
    56    31    32 1   
    57    31    54 1   
    58    31    55 1   
    59    32    56 1   
    60    32    57 1   
@<TRIPOS>SUBSTRUCTURE
     1 Q4T         1 TEMP              0 ****  ****    0 ROOT
