@<TRIPOS>MOLECULE
Q4U
   27    27     1     0     0
SMALL
abcg2


@<TRIPOS>ATOM
      1 N1         -36.7920   -32.3680    40.8810 nc         1 Q4U      -0.347300
      2 C4         -35.1920   -33.1860    44.0170 c          1 Q4U       0.521600
      3 C5         -35.6290   -32.4550    42.7880 cc         1 Q4U       0.144500
      4 C6         -35.2390   -31.3300    42.1400 cd         1 Q4U      -0.223000
      5 C7         -36.0020   -31.3250    40.9380 cd         1 Q4U       0.275300
      6 C8         -35.9750   -30.3160    39.8430 c3         1 Q4U      -0.133400
      7 N          -34.9540   -32.4830    45.1390 n          1 Q4U      -0.404800
      8 C          -34.0280   -30.1760    45.3570 c3         1 Q4U      -0.112600
      9 O          -35.0510   -34.4100    43.9380 o          1 Q4U      -0.571100
     10 C1         -35.2660   -31.0640    45.3360 c3         1 Q4U       0.101000
     11 C2         -34.4820   -33.2160    46.3200 c3         1 Q4U       0.101000
     12 C3         -35.6270   -33.7870    47.1500 c3         1 Q4U      -0.112600
     13 O1         -36.5560   -33.1010    42.0490 os         1 Q4U      -0.059700
     14 H10        -34.5080   -30.6020    42.4460 ha         1 Q4U       0.152000
     15 H12        -36.6890   -30.5760    39.0630 hc         1 Q4U       0.058367
     16 H13        -36.2200   -29.3270    40.2340 hc         1 Q4U       0.058367
     17 H11        -34.9770   -30.2600    39.4050 hc         1 Q4U       0.058367
     18 H1         -34.3260   -29.1370    45.5080 hc         1 Q4U       0.044533
     19 H          -33.3540   -30.4540    46.1680 hc         1 Q4U       0.044533
     20 H2         -33.4760   -30.2440    44.4190 hc         1 Q4U       0.044533
     21 H3         -35.7990   -30.9810    46.2850 h1         1 Q4U       0.056700
     22 H4         -35.9560   -30.7450    44.5590 h1         1 Q4U       0.056700
     23 H5         -33.8220   -34.0120    45.9810 h1         1 Q4U       0.056700
     24 H6         -33.8910   -32.5220    46.9160 h1         1 Q4U       0.056700
     25 H7         -35.2280   -34.2940    48.0300 hc         1 Q4U       0.044533
     26 H9         -36.2970   -32.9950    47.4900 hc         1 Q4U       0.044533
     27 H8         -36.2050   -34.5060    46.5700 hc         1 Q4U       0.044533
@<TRIPOS>BOND
     1     1     5 2   
     2     1    13 1   
     3     2     3 1   
     4     2     7 1   
     5     2     9 2   
     6     3     4 2   
     7     3    13 1   
     8     4     5 1   
     9     4    14 1   
    10     5     6 1   
    11     6    15 1   
    12     6    16 1   
    13     6    17 1   
    14     7    10 1   
    15     7    11 1   
    16     8    10 1   
    17     8    18 1   
    18     8    19 1   
    19     8    20 1   
    20    10    21 1   
    21    10    22 1   
    22    11    12 1   
    23    11    23 1   
    24    11    24 1   
    25    12    25 1   
    26    12    26 1   
    27    12    27 1   
@<TRIPOS>SUBSTRUCTURE
     1 Q4U         1 TEMP              0 ****  ****    0 ROOT
