@<TRIPOS>MOLECULE
Q4U
   27    27     1     0     0
SMALL
No Charge or Current Charge


@<TRIPOS>ATOM
      1 N1         -36.1710   -32.5470    40.4210 nc         1 Q4U      -0.347300
      2 C4         -35.2470   -33.3080    43.9560 c          1 Q4U       0.521600
      3 C5         -35.5650   -32.6380    42.6420 cc         1 Q4U       0.144500
      4 C6         -35.5120   -31.3340    42.2180 cd         1 Q4U      -0.223000
      5 C7         -35.8960   -31.3390    40.8680 cd         1 Q4U       0.275300
      6 C8         -35.9890   -30.1460    39.9610 c3         1 Q4U      -0.133400
      7 N          -34.9800   -32.5540    45.1440 n          1 Q4U      -0.404800
      8 C          -34.0140   -30.2240    45.1850 c3         1 Q4U      -0.112600
      9 O          -35.2160   -34.5340    44.0180 o          1 Q4U      -0.571100
     10 C1         -35.2680   -31.1120    45.3160 c3         1 Q4U       0.101000
     11 C2         -34.5010   -33.2580    46.3630 c3         1 Q4U       0.101000
     12 C3         -35.6400   -33.6780    47.3120 c3         1 Q4U      -0.112600
     13 O1         -35.9470   -33.4040    41.5590 os         1 Q4U      -0.059700
     14 H10        -35.2140   -30.4510    42.7590 ha         1 Q4U       0.152000
     15 H12        -36.9960   -30.0530    39.5380 hc         1 Q4U       0.058367
     16 H13        -35.7670   -29.2190    40.5030 hc         1 Q4U       0.058367
     17 H11        -35.2780   -30.2280    39.1310 hc         1 Q4U       0.058367
     18 H1         -34.2900   -29.1640    45.2350 hc         1 Q4U       0.044533
     19 H          -33.3100   -30.4300    46.0000 hc         1 Q4U       0.044533
     20 H2         -33.4930   -30.4040    44.2380 hc         1 Q4U       0.044533
     21 H3         -35.6770   -30.9570    46.3230 h1         1 Q4U       0.056700
     22 H4         -36.0650   -30.7930    44.6360 h1         1 Q4U       0.056700
     23 H5         -33.9190   -34.1450    46.0800 h1         1 Q4U       0.056700
     24 H6         -33.8170   -32.5970    46.9100 h1         1 Q4U       0.056700
     25 H7         -35.2330   -34.1990    48.1860 hc         1 Q4U       0.044533
     26 H9         -36.2010   -32.8040    47.6640 hc         1 Q4U       0.044533
     27 H8         -36.3370   -34.3540    46.8020 hc         1 Q4U       0.044533
@<TRIPOS>BOND
     1     1     5 2   
     2     1    13 1   
     3     2     3 1   
     4     2     7 1   
     5     2     9 2   
     6     3     4 2   
     7     3    13 1   
     8     4     5 1   
     9     4    14 1   
    10     5     6 1   
    11     6    15 1   
    12     6    16 1   
    13     6    17 1   
    14     7    10 1   
    15     7    11 1   
    16     8    10 1   
    17     8    18 1   
    18     8    19 1   
    19     8    20 1   
    20    10    21 1   
    21    10    22 1   
    22    11    12 1   
    23    11    23 1   
    24    11    24 1   
    25    12    25 1   
    26    12    26 1   
    27    12    27 1   
@<TRIPOS>SUBSTRUCTURE
     1 Q4U         1 TEMP              0 ****  ****    0 ROOT
