@<TRIPOS>MOLECULE
Q4V
   80    85     1     0     0
SMALL
bcc


@<TRIPOS>ATOM
      1 C4           2.5970    -0.9850    -2.5440 c6         1 Q4V      -0.061400
      2 C3           3.3570    -2.2820    -2.3320 c6         1 Q4V      -0.074400
      3 C2           4.8400    -1.9860    -2.2090 c6         1 Q4V      -0.032100
      4 C13          5.1200    -0.9050    -1.2000 ca         1 Q4V      -0.058300
      5 C18          6.3990    -0.8300    -0.6500 ca         1 Q4V      -0.132000
      6 C17          6.7040     0.1320     0.2920 ca         1 Q4V       0.027400
      7 CL1          8.3060     0.2010     0.9560 cl         1 Q4V      -0.131400
      8 C16          5.7450     1.0330     0.7220 ca         1 Q4V      -0.126000
      9 C15          4.4760     0.9550     0.1720 ca         1 Q4V      -0.118000
     10 C14          4.1380     0.0100    -0.8010 ca         1 Q4V      -0.057300
     11 C1           2.7190    -0.0280    -1.3510 c6         1 Q4V      -0.041700
     12 C12          1.8010    -0.4940    -0.1990 c3         1 Q4V       0.232800
     13 C11          2.3280     1.3810    -1.8040 c3         1 Q4V       0.152400
     14 O1           1.0210     1.4340    -2.3480 os         1 Q4V      -0.336900
     15 C10         -0.0170     1.5580    -1.4720 ca         1 Q4V       0.044100
     16 C5          -0.7750     2.7190    -1.5220 ca         1 Q4V      -0.141000
     17 C6          -1.9090     2.8680    -0.7420 ca         1 Q4V      -0.128000
     18 C7          -2.3070     1.8420     0.1150 ca         1 Q4V      -0.042300
     19 C8          -1.5360     0.6890     0.1670 ca         1 Q4V      -0.156000
     20 C9          -0.3760     0.5210    -0.5990 ca         1 Q4V       0.112600
     21 N1           0.4030    -0.6350    -0.5430 nh         1 Q4V      -0.691000
     22 C19         -0.2220    -1.9100    -0.2470 c3         1 Q4V       0.241800
     23 C20         -0.3260    -2.3260     1.2140 cy         1 Q4V      -0.110700
     24 C31          0.9030    -2.8590     1.9800 cy         1 Q4V      -0.089400
     25 C30         -0.0300    -3.8490     2.7000 cy         1 Q4V      -0.089400
     26 C21         -1.0160    -3.6700     1.5300 cy         1 Q4V      -0.066700
     27 C22         -2.5200    -3.7160     1.7650 c3         1 Q4V       0.207300
     28 O4          -2.8580    -2.7150     2.6930 oh         1 Q4V      -0.588800
     29 C29         -3.2300    -3.5830     0.4460 c2         1 Q4V      -0.256200
     30 C28         -3.7870    -2.4730    -0.0250 c2         1 Q4V      -0.122200
     31 C27         -4.3440    -2.3470    -1.4120 c3         1 Q4V      -0.061200
     32 C26         -5.4620    -1.3160    -1.5490 c3         1 Q4V       0.097000
     33 N2          -5.0000     0.0330    -1.2610 n          1 Q4V      -0.484800
     34 C32         -4.2850     0.6710    -2.3470 c3         1 Q4V       0.091300
     35 C25         -5.3840     0.6470    -0.1180 c          1 Q4V       0.682100
     36 O3          -6.1410     0.1040     0.6790 o          1 Q4V      -0.620100
     37 C24         -4.8530     2.0340     0.1970 c3         1 Q4V      -0.124400
     38 C23         -3.5370     1.9850     1.0110 c3         1 Q4V       0.051100
     39 C33         -3.3800     3.3070     1.8320 c          1 Q4V       0.915600
     40 O6          -2.9940     3.1280     3.0080 o          1 Q4V      -0.807300
     41 O5          -3.6350     4.3830     1.2750 o          1 Q4V      -0.807300
     42 O2          -3.6060     0.9280     1.9240 oh         1 Q4V      -0.625800
     43 H1           2.9880    -0.4960    -3.4440 hc         1 Q4V       0.057700
     44 H2           1.5410    -1.1800    -2.7330 hc         1 Q4V       0.057700
     45 H3           2.9990    -2.7980    -1.4350 hc         1 Q4V       0.041700
     46 H4           3.1820    -2.9620    -3.1680 hc         1 Q4V       0.041700
     47 H5           5.3980    -2.8860    -1.9410 hc         1 Q4V       0.044200
     48 H6           5.2260    -1.6710    -3.1850 hc         1 Q4V       0.044200
     49 H7           7.1540    -1.5400    -0.9650 ha         1 Q4V       0.138000
     50 H8           5.9720     1.7800     1.4690 ha         1 Q4V       0.146000
     51 H9           3.7350     1.6580     0.5290 ha         1 Q4V       0.145000
     52 H10          2.1600    -1.4660     0.1400 h1         1 Q4V       0.039700
     53 H11          1.9240     0.1830     0.6560 h1         1 Q4V       0.039700
     54 H12          2.4150     2.1080    -0.9900 h1         1 Q4V       0.044700
     55 H13          3.0010     1.7020    -2.6030 h1         1 Q4V       0.044700
     56 H14         -0.4790     3.5070    -2.2040 ha         1 Q4V       0.126000
     57 H15         -2.4800     3.7840    -0.7980 ha         1 Q4V       0.165000
     58 H16         -1.8450    -0.1030     0.8340 ha         1 Q4V       0.154000
     59 H17         -1.2240    -1.8910    -0.6780 h1         1 Q4V       0.045700
     60 H18          0.3310    -2.6870    -0.7900 h1         1 Q4V       0.045700
     61 H19         -0.7960    -1.5380     1.8050 hc         1 Q4V       0.095700
     62 H20          1.5890    -3.3850     1.3100 hc         1 Q4V       0.041700
     63 H21          1.4770    -2.1580     2.5870 hc         1 Q4V       0.041700
     64 H22          0.3420    -4.8540     2.9000 hc         1 Q4V       0.051200
     65 H23         -0.4220    -3.4280     3.6270 hc         1 Q4V       0.051200
     66 H24         -0.7730    -4.3980     0.7480 hc         1 Q4V       0.042700
     67 H25         -2.7550    -4.7140     2.1720 h1         1 Q4V       0.020700
     68 H26         -3.8170    -2.6370     2.7190 ho         1 Q4V       0.417000
     69 H27         -3.2030    -4.4770    -0.1750 ha         1 Q4V       0.105000
     70 H28         -3.7850    -1.5770     0.5910 ha         1 Q4V       0.169000
     71 H29         -3.5310    -2.0720    -2.0950 hc         1 Q4V       0.040700
     72 H30         -4.7090    -3.3140    -1.7660 hc         1 Q4V       0.040700
     73 H31         -5.8500    -1.3370    -2.5710 h1         1 Q4V       0.048700
     74 H32         -6.2880    -1.5630    -0.8870 h1         1 Q4V       0.048700
     75 H33         -4.9750     1.0790    -3.0910 h1         1 Q4V       0.035700
     76 H34         -3.6310     1.4620    -2.0010 h1         1 Q4V       0.035700
     77 H35         -3.6500    -0.0590    -2.8460 h1         1 Q4V       0.035700
     78 H36         -4.7290     2.6610    -0.6850 hc         1 Q4V       0.068700
     79 H37         -5.6240     2.5110     0.8050 hc         1 Q4V       0.068700
     80 H39         -3.2550     1.3270     2.7420 ho         1 Q4V       0.445000
@<TRIPOS>BOND
     1     1     2 1   
     2     1    11 1   
     3     1    43 1   
     4     1    44 1   
     5     2     3 1   
     6     2    45 1   
     7     2    46 1   
     8     3     4 1   
     9     3    47 1   
    10     3    48 1   
    11     4     5 ar  
    12     4    10 ar  
    13     5     6 ar  
    14     5    49 1   
    15     6     7 1   
    16     6     8 ar  
    17     8     9 ar  
    18     8    50 1   
    19     9    10 ar  
    20     9    51 1   
    21    10    11 1   
    22    11    12 1   
    23    11    13 1   
    24    12    21 1   
    25    12    52 1   
    26    12    53 1   
    27    13    14 1   
    28    13    54 1   
    29    13    55 1   
    30    14    15 1   
    31    15    16 ar  
    32    15    20 ar  
    33    16    17 ar  
    34    16    56 1   
    35    17    18 ar  
    36    17    57 1   
    37    18    19 ar  
    38    18    38 1   
    39    19    20 ar  
    40    19    58 1   
    41    20    21 1   
    42    21    22 1   
    43    22    23 1   
    44    22    59 1   
    45    22    60 1   
    46    23    24 1   
    47    23    26 1   
    48    23    61 1   
    49    24    25 1   
    50    24    62 1   
    51    24    63 1   
    52    25    26 1   
    53    25    64 1   
    54    25    65 1   
    55    26    27 1   
    56    26    66 1   
    57    27    28 1   
    58    27    29 1   
    59    27    67 1   
    60    28    68 1   
    61    29    30 2   
    62    29    69 1   
    63    30    31 1   
    64    30    70 1   
    65    31    32 1   
    66    31    71 1   
    67    31    72 1   
    68    32    33 1   
    69    32    73 1   
    70    32    74 1   
    71    33    34 1   
    72    33    35 1   
    73    34    75 1   
    74    34    76 1   
    75    34    77 1   
    76    35    36 2   
    77    35    37 1   
    78    37    38 1   
    79    37    78 1   
    80    37    79 1   
    81    38    39 1   
    82    38    42 1   
    83    39    40 1   
    84    39    41 1   
    85    42    80 1   
@<TRIPOS>SUBSTRUCTURE
     1 Q4V         1 TEMP              0 ****  ****    0 ROOT
