@<TRIPOS>MOLECULE
Q4V
   80    85     1     0     0
SMALL
No Charge or Current Charge


@<TRIPOS>ATOM
      1 C4           2.4300    -0.8910    -2.3710 c6         1 Q4V      -0.061400
      2 C3           3.0440    -2.2850    -2.1530 c6         1 Q4V      -0.074400
      3 C2           4.5770    -2.1730    -2.1140 c6         1 Q4V      -0.032100
      4 C13          5.0790    -1.0480    -1.2040 ca         1 Q4V      -0.058300
      5 C18          6.4280    -1.0840    -0.8010 ca         1 Q4V      -0.114000
      6 C17          6.9480    -0.0930     0.0410 ca         1 Q4V       0.119000
      7 Cl1          8.6340    -0.1560     0.5380 cl         1 Q4V      -0.223000
      8 C16          6.1230     0.9420     0.4940 ca         1 Q4V      -0.108000
      9 C15          4.7770     0.9930     0.0960 ca         1 Q4V      -0.100000
     10 C14          4.2350     0.0130    -0.7730 ca         1 Q4V      -0.057300
     11 C1           2.7330     0.0840    -1.1840 c6         1 Q4V      -0.041700
     12 C12          1.8980    -0.2610     0.0900 c3         1 Q4V       0.232800
     13 C11          2.3670     1.5440    -1.6070 c3         1 Q4V       0.175600
     14 O1           1.0450     1.6340    -2.1680 os         1 Q4V      -0.360100
     15 C10         -0.0710     1.7140    -1.3590 ca         1 Q4V       0.044100
     16 C5          -0.9510     2.7780    -1.6120 ca         1 Q4V      -0.123000
     17 C6          -2.1090     2.9500    -0.8400 ca         1 Q4V      -0.110000
     18 C7          -2.4270     2.0470     0.1950 ca         1 Q4V      -0.042300
     19 C8          -1.5540     0.9540     0.4170 ca         1 Q4V      -0.138000
     20 C9          -0.3750     0.7700    -0.3350 ca         1 Q4V       0.251000
     21 N1           0.4300    -0.3700    -0.0610 nh         1 Q4V      -0.829400
     22 C19         -0.1630    -1.7280    -0.0720 c3         1 Q4V       0.241800
     23 C20         -0.2950    -2.3560     1.3310 cy         1 Q4V      -0.110700
     24 C31          0.9800    -2.9580     2.0220 cy         1 Q4V      -0.089400
     25 C30         -0.0070    -3.9340     2.7410 cy         1 Q4V      -0.089400
     26 C21         -0.8860    -3.8130     1.4470 cy         1 Q4V      -0.066700
     27 C22         -2.4130    -4.0350     1.5550 c3         1 Q4V       0.230500
     28 O4          -3.0190    -3.2070     2.5420 oh         1 Q4V      -0.651000
     29 C29         -3.1270    -3.8170     0.2420 c2         1 Q4V      -0.306200
     30 C28         -3.5370    -2.6400    -0.2640 c2         1 Q4V      -0.172200
     31 C27         -4.1710    -2.4610    -1.6290 c3         1 Q4V      -0.061200
     32 C26         -5.3610    -1.4780    -1.6380 c3         1 Q4V       0.097000
     33 N2          -4.9850    -0.0740    -1.3250 n          1 Q4V      -0.417800
     34 C32         -4.2650     0.6630    -2.3890 c3         1 Q4V       0.091300
     35 C25         -5.3110     0.5100    -0.0680 c          1 Q4V       0.615100
     36 O3          -5.9050    -0.1540     0.7750 o          1 Q4V      -0.620100
     37 C24         -4.9990     2.0010     0.2100 c3         1 Q4V      -0.124400
     38 C23         -3.7020     2.2710     1.0450 c3         1 Q4V       0.074300
     39 C33         -3.6830     3.7680     1.5820 c          1 Q4V       0.705000
     40 O6          -3.1670     3.9570     2.6790 o          1 Q4V      -0.702000
     41 O5          -4.2550     4.6510     0.9550 o          1 Q4V      -0.702000
     42 O2          -3.7090     1.3860     2.1950 oh         1 Q4V      -0.688000
     43 H1           2.8330    -0.4710    -3.3040 hc         1 Q4V       0.057700
     44 H2           1.3490    -0.9860    -2.5360 hc         1 Q4V       0.057700
     45 H3           2.6780    -2.7290    -1.2180 hc         1 Q4V       0.041700
     46 H4           2.7410    -2.9640    -2.9620 hc         1 Q4V       0.041700
     47 H5           5.0010    -3.1350    -1.7950 hc         1 Q4V       0.044200
     48 H6           4.9530    -1.9970    -3.1320 hc         1 Q4V       0.044200
     49 H7           7.0770    -1.8880    -1.1400 ha         1 Q4V       0.120000
     50 H8           6.5240     1.7040     1.1580 ha         1 Q4V       0.128000
     51 H9           4.1610     1.8000     0.4820 ha         1 Q4V       0.127000
     52 H10          2.2940    -1.2030     0.4880 h1         1 Q4V       0.039700
     53 H11          2.1110     0.4940     0.8600 h1         1 Q4V       0.039700
     54 H12          2.4550     2.2290    -0.7550 h1         1 Q4V       0.044700
     55 H13          3.0990     1.8630    -2.3600 h1         1 Q4V       0.044700
     56 H14         -0.7250     3.4850    -2.4060 ha         1 Q4V       0.108000
     57 H15         -2.7610     3.7930    -1.0580 ha         1 Q4V       0.147000
     58 H16         -1.7830     0.2350     1.1940 ha         1 Q4V       0.136000
     59 H17         -1.1590    -1.6850    -0.5280 h1         1 Q4V       0.045700
     60 H18          0.4350    -2.4040    -0.6970 h1         1 Q4V       0.045700
     61 H19         -0.8190    -1.6370     1.9700 hc         1 Q4V       0.095700
     62 H20          1.6850    -3.4470     1.3390 hc         1 Q4V       0.041700
     63 H21          1.5390    -2.2770     2.6720 hc         1 Q4V       0.041700
     64 H22          0.3830    -4.9330     2.9640 hc         1 Q4V       0.051200
     65 H23         -0.4640    -3.5270     3.6510 hc         1 Q4V       0.051200
     66 H24         -0.5320    -4.4750     0.6460 hc         1 Q4V       0.042700
     67 H25         -2.5510    -5.0870     1.8400 h1         1 Q4V       0.020700
     68 H26         -3.9830    -3.2640     2.3760 ho         1 Q4V       0.456000
     69 H27         -3.2610    -4.7340    -0.3340 ha         1 Q4V       0.155000
     70 H28         -3.3900    -1.7120     0.2950 ha         1 Q4V       0.219000
     71 H29         -3.4140    -2.1080    -2.3390 hc         1 Q4V       0.040700
     72 H30         -4.5180    -3.4290    -2.0110 hc         1 Q4V       0.040700
     73 H31         -5.8160    -1.4940    -2.6380 h1         1 Q4V       0.048700
     74 H32         -6.1300    -1.8400    -0.9440 h1         1 Q4V       0.048700
     75 H33         -4.7900     1.5930    -2.6380 h1         1 Q4V       0.035700
     76 H34         -3.2430     0.8820    -2.0650 h1         1 Q4V       0.035700
     77 H35         -4.2090     0.0540    -3.3000 h1         1 Q4V       0.035700
     78 H36         -4.9130     2.5630    -0.7230 hc         1 Q4V       0.068700
     79 H37         -5.8440     2.4010     0.7810 hc         1 Q4V       0.068700
     80 H39         -3.3520     1.9400     2.9310 ho         1 Q4V       0.484000
@<TRIPOS>BOND
     1     1     2 1   
     2     1    11 1   
     3     1    43 1   
     4     1    44 1   
     5     2     3 1   
     6     2    45 1   
     7     2    46 1   
     8     3     4 1   
     9     3    47 1   
    10     3    48 1   
    11     4     5 ar  
    12     4    10 ar  
    13     5     6 ar  
    14     5    49 1   
    15     6     7 1   
    16     6     8 ar  
    17     8     9 ar  
    18     8    50 1   
    19     9    10 ar  
    20     9    51 1   
    21    10    11 1   
    22    11    12 1   
    23    11    13 1   
    24    12    21 1   
    25    12    52 1   
    26    12    53 1   
    27    13    14 1   
    28    13    54 1   
    29    13    55 1   
    30    14    15 1   
    31    15    16 ar  
    32    15    20 ar  
    33    16    17 ar  
    34    16    56 1   
    35    17    18 ar  
    36    17    57 1   
    37    18    19 ar  
    38    18    38 1   
    39    19    20 ar  
    40    19    58 1   
    41    20    21 1   
    42    21    22 1   
    43    22    23 1   
    44    22    59 1   
    45    22    60 1   
    46    23    24 1   
    47    23    26 1   
    48    23    61 1   
    49    24    25 1   
    50    24    62 1   
    51    24    63 1   
    52    25    26 1   
    53    25    64 1   
    54    25    65 1   
    55    26    27 1   
    56    26    66 1   
    57    27    28 1   
    58    27    29 1   
    59    27    67 1   
    60    28    68 1   
    61    29    30 2   
    62    29    69 1   
    63    30    31 1   
    64    30    70 1   
    65    31    32 1   
    66    31    71 1   
    67    31    72 1   
    68    32    33 1   
    69    32    73 1   
    70    32    74 1   
    71    33    34 1   
    72    33    35 1   
    73    34    75 1   
    74    34    76 1   
    75    34    77 1   
    76    35    36 2   
    77    35    37 1   
    78    37    38 1   
    79    37    78 1   
    80    37    79 1   
    81    38    39 1   
    82    38    42 1   
    83    39    40 1   
    84    39    41 1   
    85    42    80 1   
@<TRIPOS>SUBSTRUCTURE
     1 Q4V         1 TEMP              0 ****  ****    0 ROOT
