@<TRIPOS>MOLECULE
Q4X
   49    53     1     0     0
SMALL
abcg2


@<TRIPOS>ATOM
      1 C01         -1.5610     5.2760    21.7010 c6         1 Q4X      -0.123400
      2 C02         -1.7300     4.2400    20.6190 c6         1 Q4X       0.182000
      3 C04          0.3720     5.0720    19.6830 cc         1 Q4X      -0.311300
      4 C05          0.8100     5.4430    20.9100 cd         1 Q4X      -0.016300
      5 C06         -0.0950     5.4230    22.1070 c6         1 Q4X      -0.010100
      6 C10          2.7460     5.7370    19.6180 cc         1 Q4X       0.038600
      7 C11          2.1980     5.8200    20.8880 cd         1 Q4X      -0.333500
      8 C13          3.0020     6.2170    22.0070 cd         1 Q4X       0.623500
      9 C15          4.5320     6.8210    23.2960 cc         1 Q4X       0.612300
     10 C18          5.8430     7.2490    23.7800 cx         1 Q4X      -0.189000
     11 C19          7.0800     6.7080    23.1120 cx         1 Q4X      -0.102400
     12 C20          6.6950     8.1300    22.9050 cx         1 Q4X      -0.102400
     13 C21          4.5530     5.9650    18.0230 c          1 Q4X       0.630300
     14 C22          5.9590     6.3740    17.8870 ce         1 Q4X      -0.316400
     15 C24          6.6160     6.1660    16.7330 cf         1 Q4X      -0.013400
     16 C25          8.0670     6.5340    16.6190 c6         1 Q4X      -0.094200
     17 C26          8.6890     6.7930    17.9750 c6         1 Q4X       0.151600
     18 C28          6.6470     7.0210    19.0720 c6         1 Q4X       0.208800
     19 C03         -1.0080     4.6100    19.3410 c6         1 Q4X      -0.036100
     20 F07         -1.2660     3.0300    21.0690 f          1 Q4X      -0.126500
     21 F08         -3.0560     4.0420    20.3510 f          1 Q4X      -0.126500
     22 S09          1.5980     5.1830    18.4650 ss         1 Q4X       0.363000
     23 N12          4.0350     6.0480    19.2930 ns         1 Q4X      -0.384100
     24 N14          4.2560     6.5700    21.9860 nc         1 Q4X      -0.800000
     25 N16          3.5150     6.6400    24.0830 nd         1 Q4X      -0.413300
     26 O17          2.5050     6.2390    23.2340 os         1 Q4X      -0.099700
     27 O23          3.8460     5.5710    17.1100 o          1 Q4X      -0.538100
     28 O27          7.8570     7.6390    18.7350 os         1 Q4X      -0.458000
     29 C29          6.0490     5.5700    15.4560 c          1 Q4X       0.721200
     30 O30          6.1530     4.3380    15.3500 o          1 Q4X      -0.696000
     31 O31          5.6510     6.3980    14.6210 o          1 Q4X      -0.696000
     32 H1          -2.1650     5.0110    22.5710 hc         1 Q4X       0.062200
     33 H2          -1.9370     6.2270    21.3190 hc         1 Q4X       0.062200
     34 H17          0.1930     4.6090    22.7780 hc         1 Q4X       0.065200
     35 H18          0.0070     6.3420    22.6840 hc         1 Q4X       0.065200
     36 H39          5.8880     7.4150    24.8490 hc         1 Q4X       0.094700
     37 H40          7.9210     6.4860    23.7550 hc         1 Q4X       0.080450
     38 H41          6.9440     6.0160    22.2910 hc         1 Q4X       0.080450
     39 H42          6.2930     8.4150    21.9420 hc         1 Q4X       0.080450
     40 H43          7.2670     8.9010    23.4030 hc         1 Q4X       0.080450
     41 H44          8.6050     5.7290    16.1110 hc         1 Q4X       0.073200
     42 H45          8.1570     7.4140    15.9730 hc         1 Q4X       0.073200
     43 H47          8.8600     5.8420    18.4980 h1         1 Q4X       0.033200
     44 H46          9.6540     7.2930    17.8770 h1         1 Q4X       0.033200
     45 H49          6.0160     7.8080    19.4950 h1         1 Q4X       0.030700
     46 H48          6.8090     6.2730    19.8660 h1         1 Q4X       0.030700
     47 H23         -1.5670     5.4030    18.8370 hc         1 Q4X       0.071700
     48 H24         -0.9880     3.7530    18.6630 hc         1 Q4X       0.071700
     49 H38          4.6040     6.3390    20.0870 hn         1 Q4X       0.366500
@<TRIPOS>BOND
     1     1     2 1   
     2     1     5 1   
     3     1    32 1   
     4     1    33 1   
     5     2    19 1   
     6     2    20 1   
     7     2    21 1   
     8     3     4 2   
     9     3    19 1   
    10     3    22 1   
    11     4     5 1   
    12     4     7 1   
    13     5    34 1   
    14     5    35 1   
    15     6     7 2   
    16     6    22 1   
    17     6    23 1   
    18     7     8 1   
    19     8    24 2   
    20     8    26 1   
    21     9    10 1   
    22     9    24 1   
    23     9    25 2   
    24    10    11 1   
    25    10    12 1   
    26    10    36 1   
    27    11    12 1   
    28    11    37 1   
    29    11    38 1   
    30    12    39 1   
    31    12    40 1   
    32    13    14 1   
    33    13    23 1   
    34    13    27 2   
    35    14    15 2   
    36    14    18 1   
    37    15    16 1   
    38    15    29 1   
    39    16    17 1   
    40    16    41 1   
    41    16    42 1   
    42    17    28 1   
    43    17    43 1   
    44    17    44 1   
    45    18    28 1   
    46    18    45 1   
    47    18    46 1   
    48    19    47 1   
    49    19    48 1   
    50    23    49 1   
    51    25    26 1   
    52    29    30 1   
    53    29    31 1   
@<TRIPOS>SUBSTRUCTURE
     1 Q4X         1 TEMP              0 ****  ****    0 ROOT
