@<TRIPOS>MOLECULE
Q4X
   49    53     1     0     0
SMALL
No Charge or Current Charge


@<TRIPOS>ATOM
      1 C01         -1.5970     5.2710    21.9670 c6         1 Q4X      -0.123400
      2 C02         -1.9420     4.2980    20.8200 c6         1 Q4X       0.182000
      3 C04          0.1440     5.1320    19.6660 cc         1 Q4X      -0.311300
      4 C05          0.7270     5.4290    20.8800 cd         1 Q4X      -0.016300
      5 C06         -0.0640     5.3780    22.1860 c6         1 Q4X      -0.010100
      6 C10          2.5820     5.7250    19.4480 cc         1 Q4X       0.038600
      7 C11          2.1280     5.7470    20.7600 cd         1 Q4X      -0.333500
      8 C13          3.0080     6.0470    21.8840 cd         1 Q4X       0.623500
      9 C15          4.6390     6.5050    23.1140 cc         1 Q4X       0.612300
     10 C18          6.0260     6.8510    23.5000 cx         1 Q4X      -0.189000
     11 C19          7.2130     6.3880    22.6780 cx         1 Q4X      -0.102400
     12 C20          6.8320     7.8520    22.6960 cx         1 Q4X      -0.102400
     13 C21          4.4880     6.0130    17.8440 c          1 Q4X       0.630300
     14 C22          5.9260     6.4580    17.8230 ce         1 Q4X      -0.316400
     15 C24          6.8670     6.0950    16.8670 cf         1 Q4X      -0.013400
     16 C25          8.2480     6.8030    16.8610 c6         1 Q4X      -0.094200
     17 C26          8.5470     7.5520    18.1690 c6         1 Q4X       0.151600
     18 C28          6.2760     7.4900    18.9090 c6         1 Q4X       0.208800
     19 C03         -1.3040     4.7260    19.4780 c6         1 Q4X      -0.036100
     20 F07         -1.5120     3.0010    21.1580 f          1 Q4X      -0.126500
     21 F08         -3.3390     4.2260    20.6730 f          1 Q4X      -0.126500
     22 S09          1.2810     5.2850    18.3330 ss         1 Q4X       0.363000
     23 N12          3.8960     6.0130    19.0920 ns         1 Q4X      -0.384100
     24 N14          4.2920     6.3430    21.8030 nc         1 Q4X      -0.800000
     25 N16          3.6680     6.3310    23.9900 nd         1 Q4X      -0.413300
     26 O17          2.5650     6.0210    23.1720 os         1 Q4X      -0.099700
     27 O23          3.8650     5.7280    16.8320 o          1 Q4X      -0.538100
     28 O27          7.3950     8.3110    18.5470 os         1 Q4X      -0.458000
     29 C29          6.7010     4.9840    15.8310 c          1 Q4X       0.721200
     30 O30          5.9210     4.0660    16.0420 o          1 Q4X      -0.696000
     31 O31          7.4710     4.9660    14.8780 o          1 Q4X      -0.696000
     32 H1          -2.0890     4.9570    22.8970 hc         1 Q4X       0.062200
     33 H2          -1.9970     6.2640    21.7230 hc         1 Q4X       0.062200
     34 H17          0.2740     4.5210    22.7840 hc         1 Q4X       0.065200
     35 H18          0.1220     6.2750    22.7900 hc         1 Q4X       0.065200
     36 H39          6.1600     6.8710    24.5790 hc         1 Q4X       0.094700
     37 H40          8.1140     6.0940    23.2120 hc         1 Q4X       0.080450
     38 H41          7.0220     5.8170    21.7730 hc         1 Q4X       0.080450
     39 H42          6.3780     8.2770    21.8040 hc         1 Q4X       0.080450
     40 H43          7.4780     8.5360    23.2420 hc         1 Q4X       0.080450
     41 H44          9.0490     6.0730    16.6800 hc         1 Q4X       0.073200
     42 H45          8.2780     7.5130    16.0240 hc         1 Q4X       0.073200
     43 H47          8.7940     6.8410    18.9720 h1         1 Q4X       0.033200
     44 H46          9.4020     8.2290    18.0310 h1         1 Q4X       0.033200
     45 H49          5.4210     8.1530    19.1050 h1         1 Q4X       0.030700
     46 H48          6.5180     6.9640    19.8420 h1         1 Q4X       0.030700
     47 H23         -1.8740     5.5680    19.0620 hc         1 Q4X       0.071700
     48 H24         -1.3950     3.9090    18.7500 hc         1 Q4X       0.071700
     49 H38          4.5190     6.2440    19.8600 hn         1 Q4X       0.366500
@<TRIPOS>BOND
     1     1     2 1   
     2     1     5 1   
     3     1    32 1   
     4     1    33 1   
     5     2    19 1   
     6     2    20 1   
     7     2    21 1   
     8     3     4 2   
     9     3    19 1   
    10     3    22 1   
    11     4     5 1   
    12     4     7 1   
    13     5    34 1   
    14     5    35 1   
    15     6     7 2   
    16     6    22 1   
    17     6    23 1   
    18     7     8 1   
    19     8    24 2   
    20     8    26 1   
    21     9    10 1   
    22     9    24 1   
    23     9    25 2   
    24    10    11 1   
    25    10    12 1   
    26    10    36 1   
    27    11    12 1   
    28    11    37 1   
    29    11    38 1   
    30    12    39 1   
    31    12    40 1   
    32    13    14 1   
    33    13    23 1   
    34    13    27 2   
    35    14    15 2   
    36    14    18 1   
    37    15    16 1   
    38    15    29 1   
    39    16    17 1   
    40    16    41 1   
    41    16    42 1   
    42    17    28 1   
    43    17    43 1   
    44    17    44 1   
    45    18    28 1   
    46    18    45 1   
    47    18    46 1   
    48    19    47 1   
    49    19    48 1   
    50    23    49 1   
    51    25    26 1   
    52    29    30 1   
    53    29    31 1   
@<TRIPOS>SUBSTRUCTURE
     1 Q4X         1 TEMP              0 ****  ****    0 ROOT
