@<TRIPOS>MOLECULE
Q50
   97    99     1     0     0
SMALL
No Charge or Current Charge


@<TRIPOS>ATOM
      1 O49          0.4460    -2.1370    -8.9320 o          1 Q50      -0.598100
      2 C48          0.6120    -2.0940    -7.7230 c          1 Q50       0.601100
      3 N50          1.5050    -2.9280    -7.1430 nt         1 Q50      -0.598000
      4 C40         -0.1170    -1.0880    -6.7800 c3         1 Q50       0.028700
      5 C41         -0.6640     0.1570    -7.5230 c3         1 Q50      -0.042100
      6 C42         -1.3250     1.1660    -6.5880 ca         1 Q50      -0.088300
      7 C43         -0.6450     2.3410    -6.2110 ca         1 Q50      -0.109500
      8 C44         -1.2550     3.2680    -5.3490 ca         1 Q50      -0.107000
      9 C45         -2.5500     3.0280    -4.8610 ca         1 Q50      -0.107000
     10 C46         -3.2330     1.8560    -5.2320 ca         1 Q50      -0.107000
     11 C47         -2.6210     0.9270    -6.0900 ca         1 Q50      -0.109500
     12 N39          0.7330    -0.6980    -5.6250 ns         1 Q50      -0.506900
     13 C37          0.4530    -0.9860    -4.3020 c          1 Q50       0.581100
     14 O38         -0.4700    -1.7260    -3.9870 o          1 Q50      -0.585100
     15 C31          1.4100    -0.3290    -3.2630 c3         1 Q50       0.030700
     16 C32          2.8840    -0.7900    -3.4580 c3         1 Q50      -0.071400
     17 C33          3.9040    -0.1270    -2.4960 c3         1 Q50      -0.158400
     18 C34          5.3400    -0.5330    -2.8380 c          1 Q50       0.605100
     19 O35          6.0010     0.0120    -3.7050 o          1 Q50      -0.614100
     20 N36          5.8600    -1.5510    -2.1210 nt         1 Q50      -0.609000
     21 N30          0.9360    -0.6050    -1.8870 ns         1 Q50      -0.487900
     22 C28          0.9690     0.2850    -0.8360 c          1 Q50       0.601100
     23 O29          1.3810     1.4300    -0.9630 o          1 Q50      -0.618100
     24 C20          0.4730    -0.2770     0.5130 c3         1 Q50      -0.124700
     25 C21         -0.8090     0.4660     0.9800 c3         1 Q50      -0.025100
     26 C22         -1.9400     0.3740    -0.0380 ca         1 Q50      -0.098300
     27 C23         -2.5690    -0.8620    -0.2910 ca         1 Q50      -0.109000
     28 C24         -3.6090    -0.9490    -1.2320 ca         1 Q50      -0.108500
     29 C25         -4.0320     0.1990    -1.9210 ca         1 Q50      -0.104000
     30 C26         -3.4140     1.4350    -1.6690 ca         1 Q50      -0.108500
     31 C27         -2.3680     1.5210    -0.7330 ca         1 Q50      -0.109000
     32 C19          1.6200    -0.2560     1.5720 c3         1 Q50      -0.172400
     33 C17          1.2430    -0.9770     2.8750 c          1 Q50       0.564100
     34 O18          1.2230    -2.2020     2.9370 o          1 Q50      -0.512100
     35 C9           0.8810    -0.0780     4.0880 c3         1 Q50       0.023700
     36 N8          -0.0930    -0.7570     4.9720 ns         1 Q50      -0.494900
     37 C6          -1.1270    -0.1390     5.6160 c          1 Q50       0.656100
     38 O7          -1.4570     1.0230     5.4450 o          1 Q50      -0.543000
     39 O5          -1.7090    -1.0530     6.4510 os         1 Q50      -0.475100
     40 C1          -2.7850    -0.7020     7.3520 c3         1 Q50       0.224000
     41 C4          -3.0970    -2.0160     8.1010 c3         1 Q50      -0.108767
     42 C3          -4.0250    -0.2500     6.5390 c3         1 Q50      -0.108767
     43 C2          -2.2880     0.3720     8.3550 c3         1 Q50      -0.108767
     44 C10          2.1450     0.3770     4.8620 c3         1 Q50      -0.050100
     45 C11          1.8240     1.2640     6.0600 ca         1 Q50      -0.085300
     46 C12          1.7470     0.7130     7.3550 ca         1 Q50      -0.098500
     47 C13          1.4270     1.5280     8.4550 ca         1 Q50      -0.107000
     48 C14          1.1830     2.8990     8.2670 ca         1 Q50      -0.105000
     49 C15          1.2600     3.4540     6.9780 ca         1 Q50      -0.107000
     50 C16          1.5790     2.6390     5.8780 ca         1 Q50      -0.098500
     51 H501         2.0120    -3.5870    -7.7150 hn         1 Q50       0.317000
     52 H502         1.6520    -2.8870    -6.1460 hn         1 Q50       0.317000
     53 H40         -0.9830    -1.6420    -6.3960 h1         1 Q50       0.097700
     54 H411         0.1590     0.6350    -8.0690 hc         1 Q50       0.065700
     55 H412        -1.3840    -0.1670    -8.2850 hc         1 Q50       0.065700
     56 H43          0.3580     2.5370    -6.5840 ha         1 Q50       0.112000
     57 H44         -0.7250     4.1740    -5.0610 ha         1 Q50       0.117000
     58 H45         -3.0240     3.7480    -4.1980 ha         1 Q50       0.117000
     59 H46         -4.2350     1.6690    -4.8540 ha         1 Q50       0.117000
     60 H47         -3.1550     0.0220    -6.3710 ha         1 Q50       0.112000
     61 H39          1.5130    -0.0740    -5.7970 hn         1 Q50       0.325500
     62 H31          1.3560     0.7530    -3.4430 h1         1 Q50       0.082700
     63 H321         2.9360    -1.8810    -3.3420 hc         1 Q50       0.063200
     64 H322         3.1940    -0.5720    -4.4880 hc         1 Q50       0.063200
     65 H331         3.8130     0.9620    -2.5790 hc         1 Q50       0.066700
     66 H332         3.6710    -0.4540    -1.4760 hc         1 Q50       0.066700
     67 H361         6.8030    -1.8560    -2.3100 hn         1 Q50       0.314000
     68 H362         5.3070    -2.0020    -1.4070 hn         1 Q50       0.314000
     69 H30          0.5200    -1.5110    -1.7010 hn         1 Q50       0.339500
     70 H20          0.2000    -1.3270     0.3530 hc         1 Q50       0.070700
     71 H211        -1.1580     0.0410     1.9280 hc         1 Q50       0.066700
     72 H212        -0.5640     1.5160     1.1890 hc         1 Q50       0.066700
     73 H23         -2.2530    -1.7560     0.2420 ha         1 Q50       0.116000
     74 H24         -4.0890    -1.9070    -1.4250 ha         1 Q50       0.117000
     75 H25         -4.8390     0.1320    -2.6480 ha         1 Q50       0.113000
     76 H26         -3.7450     2.3260    -2.1960 ha         1 Q50       0.117000
     77 H27         -1.8930     2.4830    -0.5500 ha         1 Q50       0.116000
     78 H191         1.8710     0.7900     1.7880 hc         1 Q50       0.078700
     79 H192         2.4940    -0.7610     1.1440 hc         1 Q50       0.078700
     80 H9           0.4000     0.8190     3.6760 h1         1 Q50       0.101700
     81 HN8          0.0430    -1.7340     5.1980 hn         1 Q50       0.334500
     82 H41         -3.9060    -1.8690     8.8270 hc         1 Q50       0.049589
     83 H42         -3.4090    -2.8000     7.4000 hc         1 Q50       0.049589
     84 H43A        -2.2150    -2.3750     8.6450 hc         1 Q50       0.049589
     85 H31A        -4.2310    -0.9510     5.7210 hc         1 Q50       0.049589
     86 H32         -4.9110    -0.2130     7.1830 hc         1 Q50       0.049589
     87 H33         -3.8940     0.7510     6.1130 hc         1 Q50       0.049589
     88 H21         -1.3290     0.0780     8.7960 hc         1 Q50       0.049589
     89 H22         -2.1630     1.3510     7.8800 hc         1 Q50       0.049589
     90 H23A        -3.0110     0.4970     9.1700 hc         1 Q50       0.049589
     91 H101         2.6990    -0.5110     5.1910 hc         1 Q50       0.055200
     92 H102         2.8140     0.9110     4.1760 hc         1 Q50       0.055200
     93 H12          1.9270    -0.3490     7.5090 ha         1 Q50       0.109000
     94 H13          1.3660     1.0960     9.4510 ha         1 Q50       0.112500
     95 H14          0.9340     3.5290     9.1180 ha         1 Q50       0.112000
     96 H15          1.0690     4.5150     6.8310 ha         1 Q50       0.112500
     97 H16          1.6290     3.0760     4.8830 ha         1 Q50       0.109000
@<TRIPOS>BOND
     1     1     2 2   
     2     2     3 1   
     3     2     4 1   
     4     3    51 1   
     5     3    52 1   
     6     4     5 1   
     7     4    12 1   
     8     4    53 1   
     9     5     6 1   
    10     5    54 1   
    11     5    55 1   
    12     6     7 ar  
    13     6    11 ar  
    14     7     8 ar  
    15     7    56 1   
    16     8     9 ar  
    17     8    57 1   
    18     9    10 ar  
    19     9    58 1   
    20    10    11 ar  
    21    10    59 1   
    22    11    60 1   
    23    12    13 1   
    24    12    61 1   
    25    13    14 2   
    26    13    15 1   
    27    15    16 1   
    28    15    21 1   
    29    15    62 1   
    30    16    17 1   
    31    16    63 1   
    32    16    64 1   
    33    17    18 1   
    34    17    65 1   
    35    17    66 1   
    36    18    19 2   
    37    18    20 1   
    38    20    67 1   
    39    20    68 1   
    40    21    22 1   
    41    21    69 1   
    42    22    23 2   
    43    22    24 1   
    44    24    25 1   
    45    24    32 1   
    46    24    70 1   
    47    25    26 1   
    48    25    71 1   
    49    25    72 1   
    50    26    27 ar  
    51    26    31 ar  
    52    27    28 ar  
    53    27    73 1   
    54    28    29 ar  
    55    28    74 1   
    56    29    30 ar  
    57    29    75 1   
    58    30    31 ar  
    59    30    76 1   
    60    31    77 1   
    61    32    33 1   
    62    32    78 1   
    63    32    79 1   
    64    33    34 2   
    65    33    35 1   
    66    35    36 1   
    67    35    44 1   
    68    35    80 1   
    69    36    37 1   
    70    36    81 1   
    71    37    38 2   
    72    37    39 1   
    73    39    40 1   
    74    40    41 1   
    75    40    42 1   
    76    40    43 1   
    77    41    82 1   
    78    41    83 1   
    79    41    84 1   
    80    42    85 1   
    81    42    86 1   
    82    42    87 1   
    83    43    88 1   
    84    43    89 1   
    85    43    90 1   
    86    44    45 1   
    87    44    91 1   
    88    44    92 1   
    89    45    46 ar  
    90    45    50 ar  
    91    46    47 ar  
    92    46    93 1   
    93    47    48 ar  
    94    47    94 1   
    95    48    49 ar  
    96    48    95 1   
    97    49    50 ar  
    98    49    96 1   
    99    50    97 1   
@<TRIPOS>SUBSTRUCTURE
     1 Q50         1 TEMP              0 ****  ****    0 ROOT
