@<TRIPOS>MOLECULE
Q50
   97    99     1     0     0
SMALL
bcc


@<TRIPOS>ATOM
      1 O49          0.7680    -2.9410    -7.3710 o          1 Q50      -0.598100
      2 C48          1.1550    -1.9290    -6.8080 c          1 Q50       0.668100
      3 N50          2.4440    -1.6210    -6.6290 nt         1 Q50      -0.665000
      4 C40          0.1450    -0.8840    -6.3300 c3         1 Q50       0.028700
      5 C41         -0.1640     0.0800    -7.4850 c3         1 Q50      -0.042100
      6 C42         -1.3410     0.9690    -7.1900 ca         1 Q50      -0.088300
      7 C43         -1.1650     2.2710    -6.7320 ca         1 Q50      -0.127500
      8 C44         -2.2580     3.0750    -6.4320 ca         1 Q50      -0.125000
      9 C45         -3.5470     2.5850    -6.5950 ca         1 Q50      -0.125000
     10 C46         -3.7340     1.2880    -7.0560 ca         1 Q50      -0.125000
     11 C47         -2.6400     0.4870    -7.3500 ca         1 Q50      -0.127500
     12 N39          0.6000    -0.1510    -5.1740 ns         1 Q50      -0.573900
     13 C37          0.7650    -0.7600    -3.9870 c          1 Q50       0.648100
     14 O38          0.5660    -1.9520    -3.8260 o          1 Q50      -0.585100
     15 C31          1.3200     0.1160    -2.8700 c3         1 Q50       0.030700
     16 C32          2.8520     0.0450    -2.9170 c3         1 Q50      -0.071400
     17 C33          3.5070     0.9110    -1.8530 c3         1 Q50      -0.158400
     18 C34          5.0190     0.9190    -1.9590 c          1 Q50       0.672100
     19 O35          5.6020     0.7730    -3.0240 o          1 Q50      -0.614100
     20 N36          5.6610     1.1250    -0.7990 nt         1 Q50      -0.676000
     21 N30          0.7710    -0.3520    -1.6220 ns         1 Q50      -0.554900
     22 C28          0.2720     0.4630    -0.6800 c          1 Q50       0.668100
     23 O29          0.4260     1.6760    -0.6850 o          1 Q50      -0.618100
     24 C20         -0.5620    -0.2240     0.3880 c3         1 Q50      -0.124700
     25 C21         -2.0420     0.0890     0.0820 c3         1 Q50      -0.025100
     26 C22         -2.4150    -0.3190    -1.3170 ca         1 Q50      -0.098300
     27 C23         -2.6980    -1.6500    -1.6130 ca         1 Q50      -0.127000
     28 C24         -2.9510    -2.0510    -2.9170 ca         1 Q50      -0.126500
     29 C25         -2.9200    -1.1230    -3.9490 ca         1 Q50      -0.122000
     30 C26         -2.6430     0.2070    -3.6670 ca         1 Q50      -0.126500
     31 C27         -2.3970     0.6040    -2.3600 ca         1 Q50      -0.127000
     32 C19         -0.1330     0.2590     1.7680 c3         1 Q50      -0.172400
     33 C17         -0.6540    -0.5430     2.9270 c          1 Q50       0.564100
     34 O18         -1.4570    -1.4390     2.8240 o          1 Q50      -0.512100
     35 C9          -0.0560    -0.1860     4.2820 c3         1 Q50       0.023700
     36 N8          -1.0050    -0.4180     5.3320 ns         1 Q50      -0.561900
     37 C6          -1.1770     0.4490     6.3590 c          1 Q50       0.772100
     38 O7          -0.6960     1.5600     6.4040 o          1 Q50      -0.592000
     39 O5          -1.9700    -0.0970     7.2800 os         1 Q50      -0.451900
     40 C1          -2.2920     0.5760     8.5250 c3         1 Q50       0.200800
     41 C4          -3.1970    -0.4240     9.2350 c3         1 Q50      -0.108767
     42 C3          -3.0590     1.8690     8.2720 c3         1 Q50      -0.108767
     43 C2          -1.0340     0.8040     9.3550 c3         1 Q50      -0.108767
     44 C10          1.2310    -1.0190     4.4820 c3         1 Q50      -0.050100
     45 C11          1.9090    -0.6710     5.7760 ca         1 Q50      -0.085300
     46 C12          1.6260    -1.3760     6.9420 ca         1 Q50      -0.116500
     47 C13          2.2100    -1.0160     8.1490 ca         1 Q50      -0.125000
     48 C14          3.0880     0.0570     8.2050 ca         1 Q50      -0.123000
     49 C15          3.3830     0.7640     7.0460 ca         1 Q50      -0.125000
     50 C16          2.7940     0.4020     5.8430 ca         1 Q50      -0.116500
     51 H501         3.1670    -2.2460    -6.9460 hn         1 Q50       0.317000
     52 H502         2.7320    -0.7750    -6.1700 hn         1 Q50       0.317000
     53 H40         -0.7660    -1.4330    -6.0760 h1         1 Q50       0.097700
     54 H411         0.7230     0.6790    -7.7060 hc         1 Q50       0.065700
     55 H412        -0.3690    -0.5190    -8.3740 hc         1 Q50       0.065700
     56 H43         -0.1640     2.6720    -6.6180 ha         1 Q50       0.130000
     57 H44         -2.1000     4.0840    -6.0770 ha         1 Q50       0.135000
     58 H45         -4.4000     3.2100    -6.3670 ha         1 Q50       0.135000
     59 H46         -4.7350     0.8980    -7.1900 ha         1 Q50       0.135000
     60 H47         -2.7970    -0.5230    -7.7110 ha         1 Q50       0.130000
     61 H39          0.7120     0.8490    -5.2360 hn         1 Q50       0.325500
     62 H31          1.0050     1.1530    -3.0150 h1         1 Q50       0.082700
     63 H321         3.1640    -0.9960    -2.7980 hc         1 Q50       0.063200
     64 H322         3.1870     0.3680    -3.9050 hc         1 Q50       0.063200
     65 H331         3.1670     1.9460    -1.9540 hc         1 Q50       0.066700
     66 H332         3.2040     0.5870    -0.8560 hc         1 Q50       0.066700
     67 H361         6.6650     1.1990    -0.7760 hn         1 Q50       0.314000
     68 H362         5.1680     1.2390     0.0690 hn         1 Q50       0.314000
     69 H30          0.5470    -1.3350    -1.5730 hn         1 Q50       0.339500
     70 H20         -0.4180    -1.3060     0.3270 hc         1 Q50       0.070700
     71 H211        -2.6670    -0.4320     0.8070 hc         1 Q50       0.066700
     72 H212        -2.2120     1.1600     0.2210 hc         1 Q50       0.066700
     73 H23         -2.7150    -2.3840    -0.8140 ha         1 Q50       0.134000
     74 H24         -3.1680    -3.0900    -3.1290 ha         1 Q50       0.135000
     75 H25         -3.1160    -1.4330    -4.9680 ha         1 Q50       0.131000
     76 H26         -2.6150     0.9360    -4.4650 ha         1 Q50       0.135000
     77 H27         -2.1770     1.6440    -2.1510 ha         1 Q50       0.134000
     78 H191        -0.4340     1.3000     1.9300 hc         1 Q50       0.078700
     79 H192         0.9600     0.2740     1.8490 hc         1 Q50       0.078700
     80 H9           0.2090     0.8730     4.2880 h1         1 Q50       0.101700
     81 HN8         -1.4010    -1.3420     5.4120 hn         1 Q50       0.334500
     82 H41         -3.4970    -0.0230    10.2030 hc         1 Q50       0.049589
     83 H42         -4.1040    -0.6230     8.6620 hc         1 Q50       0.049589
     84 H43A        -2.6830    -1.3700     9.4100 hc         1 Q50       0.049589
     85 H31A        -3.9200     1.6900     7.6260 hc         1 Q50       0.049589
     86 H32         -3.4350     2.2530     9.2210 hc         1 Q50       0.049589
     87 H33         -2.4410     2.6410     7.8190 hc         1 Q50       0.049589
     88 H21         -0.5150    -0.1390     9.5350 hc         1 Q50       0.049589
     89 H22         -0.3390     1.4940     8.8830 hc         1 Q50       0.049589
     90 H23A        -1.3150     1.2170    10.3250 hc         1 Q50       0.049589
     91 H101         0.9690    -2.0800     4.4650 hc         1 Q50       0.055200
     92 H102         1.9110    -0.8490     3.6440 hc         1 Q50       0.055200
     93 H12          0.9450    -2.2190     6.9090 ha         1 Q50       0.127000
     94 H13          1.9780    -1.5750     9.0470 ha         1 Q50       0.130500
     95 H14          3.5460     0.3380     9.1450 ha         1 Q50       0.130000
     96 H15          4.0720     1.5970     7.0780 ha         1 Q50       0.130500
     97 H16          3.0280     0.9610     4.9430 ha         1 Q50       0.127000
@<TRIPOS>BOND
     1     1     2 2   
     2     2     3 1   
     3     2     4 1   
     4     3    51 1   
     5     3    52 1   
     6     4     5 1   
     7     4    12 1   
     8     4    53 1   
     9     5     6 1   
    10     5    54 1   
    11     5    55 1   
    12     6     7 ar  
    13     6    11 ar  
    14     7     8 ar  
    15     7    56 1   
    16     8     9 ar  
    17     8    57 1   
    18     9    10 ar  
    19     9    58 1   
    20    10    11 ar  
    21    10    59 1   
    22    11    60 1   
    23    12    13 1   
    24    12    61 1   
    25    13    14 2   
    26    13    15 1   
    27    15    16 1   
    28    15    21 1   
    29    15    62 1   
    30    16    17 1   
    31    16    63 1   
    32    16    64 1   
    33    17    18 1   
    34    17    65 1   
    35    17    66 1   
    36    18    19 2   
    37    18    20 1   
    38    20    67 1   
    39    20    68 1   
    40    21    22 1   
    41    21    69 1   
    42    22    23 2   
    43    22    24 1   
    44    24    25 1   
    45    24    32 1   
    46    24    70 1   
    47    25    26 1   
    48    25    71 1   
    49    25    72 1   
    50    26    27 ar  
    51    26    31 ar  
    52    27    28 ar  
    53    27    73 1   
    54    28    29 ar  
    55    28    74 1   
    56    29    30 ar  
    57    29    75 1   
    58    30    31 ar  
    59    30    76 1   
    60    31    77 1   
    61    32    33 1   
    62    32    78 1   
    63    32    79 1   
    64    33    34 2   
    65    33    35 1   
    66    35    36 1   
    67    35    44 1   
    68    35    80 1   
    69    36    37 1   
    70    36    81 1   
    71    37    38 2   
    72    37    39 1   
    73    39    40 1   
    74    40    41 1   
    75    40    42 1   
    76    40    43 1   
    77    41    82 1   
    78    41    83 1   
    79    41    84 1   
    80    42    85 1   
    81    42    86 1   
    82    42    87 1   
    83    43    88 1   
    84    43    89 1   
    85    43    90 1   
    86    44    45 1   
    87    44    91 1   
    88    44    92 1   
    89    45    46 ar  
    90    45    50 ar  
    91    46    47 ar  
    92    46    93 1   
    93    47    48 ar  
    94    47    94 1   
    95    48    49 ar  
    96    48    95 1   
    97    49    50 ar  
    98    49    96 1   
    99    50    97 1   
@<TRIPOS>SUBSTRUCTURE
     1 Q50         1 TEMP              0 ****  ****    0 ROOT
