@<TRIPOS>MOLECULE
Q52
   56    59     1     0     0
SMALL
abcg2


@<TRIPOS>ATOM
      1 C4           6.4670    52.4330    39.1300 ca         1 Q52      -0.026000
      2 C14          6.2060    41.1010    40.1540 c3         1 Q52       0.208100
      3 C5           6.2010    51.7740    40.3600 ca         1 Q52       0.197000
      4 C6           5.6040    51.8510    42.5640 ca         1 Q52       0.337900
      5 C11          5.7820    45.5640    40.0650 c6         1 Q52       0.178300
      6 C7           5.7030    50.4550    42.6880 ca         1 Q52      -0.154000
      7 C8           6.0670    49.6800    41.6070 ca         1 Q52      -0.019300
      8 C9           6.1400    48.1890    41.6880 c3         1 Q52      -0.070100
      9 C10          4.8400    47.5470    41.1350 c3         1 Q52       0.183800
     10 C12          5.5300    44.0810    39.8190 c6         1 Q52      -0.091900
     11 C13          5.5850    43.2820    41.1280 c6         1 Q52       0.170500
     12 N1           5.8420    52.5070    41.4450 nb         1 Q52      -0.642000
     13 N2           4.8330    46.0970    41.0370 n3         1 Q52      -0.738600
     14 C3           6.8210    51.7070    38.0350 ca         1 Q52      -0.161000
     15 C1           7.3660    48.1970    37.1390 c3         1 Q52       0.158900
     16 C2           6.9170    50.2930    38.1710 ca         1 Q52       0.593300
     17 C15          5.8610    39.6350    40.1590 ca         1 Q52      -0.086300
     18 C16          6.0800    38.8560    41.2970 ca         1 Q52      -0.087500
     19 C17          5.7490    37.5080    41.3200 ca         1 Q52      -0.105500
     20 C18          5.1860    36.9350    40.1860 ca         1 Q52       0.127000
     21 CL1          4.7670    35.2310    40.2050 cl         1 Q52      -0.216000
     22 C19          4.9530    37.6810    39.0410 ca         1 Q52      -0.105500
     23 C20          5.2950    39.0300    39.0390 ca         1 Q52      -0.087500
     24 C21          4.6460    43.9170    42.1510 c6         1 Q52      -0.091900
     25 C22          4.9270    45.4060    42.3190 c6         1 Q52       0.178300
     26 C23          6.3260    50.3600    40.3860 ca         1 Q52       0.269000
     27 N4           6.6860    49.6480    39.2800 nb         1 Q52      -0.761000
     28 H1           6.3780    53.5110    39.0880 ha         1 Q52       0.140000
     29 H2           7.2080    41.2460    40.5680 h1         1 Q52       0.037700
     30 H3           6.2340    41.4530    39.1150 h1         1 Q52       0.037700
     31 H4           5.3180    52.4450    43.4260 h4         1 Q52       0.023100
     32 H5           6.8250    45.6960    40.4000 h1         1 Q52       0.031700
     33 H6           5.6730    46.1260    39.1360 h1         1 Q52       0.031700
     34 H7           5.4940    49.9920    43.6440 ha         1 Q52       0.124000
     35 H8           6.2850    47.8890    42.7250 hc         1 Q52       0.057700
     36 H9           6.9890    47.8340    41.1040 hc         1 Q52       0.057700
     37 H10          4.6540    47.9510    40.1390 h1         1 Q52       0.057700
     38 H11          4.0080    47.8500    41.7750 h1         1 Q52       0.057700
     39 H12          4.5410    43.9490    39.3670 hc         1 Q52       0.050200
     40 H13          6.2710    43.7090    39.1080 hc         1 Q52       0.050200
     41 H14          6.6090    43.3420    41.5190 h1         1 Q52       0.053700
     42 H16          7.0310    52.1650    37.0790 ha         1 Q52       0.142000
     43 H17          4.3340    41.7530    40.6210 hn         1 Q52       0.412000
     44 H19          7.6560    47.8690    36.1440 h1         1 Q52       0.048367
     45 H20          8.1180    47.9040    37.8720 h1         1 Q52       0.048367
     46 H21          6.4060    47.7640    37.4190 h1         1 Q52       0.048367
     47 H22          6.5170    39.3100    42.1780 ha         1 Q52       0.119500
     48 H23          5.9280    36.9090    42.2030 ha         1 Q52       0.129500
     49 H24          4.5140    37.2190    38.1670 ha         1 Q52       0.129500
     50 H25          5.1180    39.6180    38.1460 ha         1 Q52       0.119500
     51 H26          3.6120    43.7810    41.8160 hc         1 Q52       0.050200
     52 H27          4.7510    43.4080    43.1120 hc         1 Q52       0.050200
     53 H28          5.9230    45.5300    42.7760 h1         1 Q52       0.031700
     54 H29          4.2020    45.8520    43.0030 h1         1 Q52       0.031700
     55 N3           5.2740    41.8560    40.9950 n7         1 Q52      -0.865400
     56 O1           7.2690    49.6270    37.0560 os         1 Q52      -0.465300
@<TRIPOS>BOND
     1     1     3 ar  
     2     1    14 ar  
     3     1    28 1   
     4     2    17 1   
     5     2    29 1   
     6     2    30 1   
     7     2    55 1   
     8     3    12 ar  
     9     3    26 ar  
    10     4     6 ar  
    11     4    12 ar  
    12     4    31 1   
    13     5    10 1   
    14     5    13 1   
    15     5    32 1   
    16     5    33 1   
    17     6     7 ar  
    18     6    34 1   
    19     7     8 1   
    20     7    26 ar  
    21     8     9 1   
    22     8    35 1   
    23     8    36 1   
    24     9    13 1   
    25     9    37 1   
    26     9    38 1   
    27    10    11 1   
    28    10    39 1   
    29    10    40 1   
    30    11    24 1   
    31    11    41 1   
    32    11    55 1   
    33    13    25 1   
    34    14    16 ar  
    35    14    42 1   
    36    15    44 1   
    37    15    45 1   
    38    15    46 1   
    39    15    56 1   
    40    16    27 ar  
    41    16    56 1   
    42    17    18 ar  
    43    17    23 ar  
    44    18    19 ar  
    45    18    47 1   
    46    19    20 ar  
    47    19    48 1   
    48    20    21 1   
    49    20    22 ar  
    50    22    23 ar  
    51    22    49 1   
    52    23    50 1   
    53    24    25 1   
    54    24    51 1   
    55    24    52 1   
    56    25    53 1   
    57    25    54 1   
    58    26    27 ar  
    59    43    55 1   
@<TRIPOS>SUBSTRUCTURE
     1 Q52         1 TEMP              0 ****  ****    0 ROOT
