@<TRIPOS>MOLECULE
Q52
   56    59     1     0     0
SMALL
No Charge or Current Charge


@<TRIPOS>ATOM
      1 C4           6.5310    52.6380    39.3290 ca         1 Q52      -0.026000
      2 C14          6.3520    40.9510    40.3480 c3         1 Q52       0.208100
      3 C5           6.2680    51.8900    40.4900 ca         1 Q52       0.197000
      4 C6           5.7110    51.7990    42.7470 ca         1 Q52       0.337900
      5 C11          5.8090    45.4890    39.9630 c6         1 Q52       0.178300
      6 C7           5.7540    50.3980    42.7460 ca         1 Q52      -0.154000
      7 C8           6.0710    49.7090    41.5600 ca         1 Q52      -0.019300
      8 C9           6.1140    48.1790    41.5710 c3         1 Q52      -0.070100
      9 C10          4.8330    47.5580    40.9590 c3         1 Q52       0.183800
     10 C12          5.5870    43.9720    39.7690 c6         1 Q52      -0.091900
     11 C13          5.5970    43.2360    41.1330 c6         1 Q52       0.170500
     12 N1           5.9620    52.5370    41.6440 nb         1 Q52      -0.642000
     13 N2           4.7980    46.0720    40.8880 n3         1 Q52      -0.738600
     14 C3           6.8440    51.9710    38.1330 ca         1 Q52      -0.161000
     15 C1           7.2450    48.5120    36.8340 c3         1 Q52       0.158900
     16 C2           6.8900    50.5720    38.1170 ca         1 Q52       0.593300
     17 C15          5.9120    39.4940    40.3320 ca         1 Q52      -0.086300
     18 C16          6.1230    38.6770    41.4610 ca         1 Q52      -0.087500
     19 C17          5.7190    37.3300    41.4470 ca         1 Q52      -0.105500
     20 C18          5.1020    36.7950    40.3040 ca         1 Q52       0.127000
     21 Cl1          4.5960    35.1100    40.2870 cl         1 Q52      -0.216000
     22 C19          4.8880    37.6030    39.1760 ca         1 Q52      -0.105500
     23 C20          5.2910    38.9500    39.1890 ca         1 Q52      -0.087500
     24 C21          4.5580    43.8810    42.0770 c6         1 Q52      -0.091900
     25 C22          4.8080    45.4000    42.2170 c6         1 Q52       0.178300
     26 C23          6.3380    50.4610    40.3850 ca         1 Q52       0.269000
     27 N4           6.6440    49.8320    39.2170 nb         1 Q52      -0.761000
     28 H1           6.4900    53.7240    39.3570 ha         1 Q52       0.140000
     29 H2           7.3040    41.0330    40.8910 h1         1 Q52       0.037700
     30 H3           6.5360    41.2780    39.3160 h1         1 Q52       0.037700
     31 H4           5.4680    52.3470    43.6560 h4         1 Q52       0.023100
     32 H5           6.8250    45.6490    40.3520 h1         1 Q52       0.031700
     33 H6           5.7560    45.9830    38.9810 h1         1 Q52       0.031700
     34 H7           5.5410    49.8590    43.6650 ha         1 Q52       0.124000
     35 H8           6.2380    47.8180    42.5980 hc         1 Q52       0.057700
     36 H9           6.9950    47.8300    41.0210 hc         1 Q52       0.057700
     37 H10          4.7040    47.9670    39.9470 h1         1 Q52       0.057700
     38 H11          3.9740    47.9140    41.5440 h1         1 Q52       0.057700
     39 H12          4.6310    43.8050    39.2560 hc         1 Q52       0.050200
     40 H13          6.3730    43.5780    39.1120 hc         1 Q52       0.050200
     41 H14          6.5920    43.3600    41.5900 h1         1 Q52       0.053700
     42 H16          7.0490    52.5270    37.2240 ha         1 Q52       0.142000
     43 H17          4.4440    41.6710    40.4690 hn         1 Q52       0.412000
     44 H19          7.5010    48.2050    35.8120 h1         1 Q52       0.048367
     45 H20          8.0030    48.0990    37.5120 h1         1 Q52       0.048367
     46 H21          6.2720    48.0690    37.0870 h1         1 Q52       0.048367
     47 H22          6.5970    39.0890    42.3490 ha         1 Q52       0.119500
     48 H23          5.8820    36.7030    42.3190 ha         1 Q52       0.129500
     49 H24          4.4090    37.1850    38.2930 ha         1 Q52       0.129500
     50 H25          5.1210    39.5700    38.3110 ha         1 Q52       0.119500
     51 H26          3.5420    43.7130    41.6950 hc         1 Q52       0.050200
     52 H27          4.6060    43.4100    43.0680 hc         1 Q52       0.050200
     53 H28          5.7740    45.5540    42.7200 h1         1 Q52       0.031700
     54 H29          4.0310    45.8280    42.8670 h1         1 Q52       0.031700
     55 N3           5.3210    41.7900    40.9870 n7         1 Q52      -0.865400
     56 O1           7.1960    49.9500    36.9290 os         1 Q52      -0.465300
@<TRIPOS>BOND
     1     1     3 ar  
     2     1    14 ar  
     3     1    28 1   
     4     2    17 1   
     5     2    29 1   
     6     2    30 1   
     7     2    55 1   
     8     3    12 ar  
     9     3    26 ar  
    10     4     6 ar  
    11     4    12 ar  
    12     4    31 1   
    13     5    10 1   
    14     5    13 1   
    15     5    32 1   
    16     5    33 1   
    17     6     7 ar  
    18     6    34 1   
    19     7     8 1   
    20     7    26 ar  
    21     8     9 1   
    22     8    35 1   
    23     8    36 1   
    24     9    13 1   
    25     9    37 1   
    26     9    38 1   
    27    10    11 1   
    28    10    39 1   
    29    10    40 1   
    30    11    24 1   
    31    11    41 1   
    32    11    55 1   
    33    13    25 1   
    34    14    16 ar  
    35    14    42 1   
    36    15    44 1   
    37    15    45 1   
    38    15    46 1   
    39    15    56 1   
    40    16    27 ar  
    41    16    56 1   
    42    17    18 ar  
    43    17    23 ar  
    44    18    19 ar  
    45    18    47 1   
    46    19    20 ar  
    47    19    48 1   
    48    20    21 1   
    49    20    22 ar  
    50    22    23 ar  
    51    22    49 1   
    52    23    50 1   
    53    24    25 1   
    54    24    51 1   
    55    24    52 1   
    56    25    53 1   
    57    25    54 1   
    58    26    27 ar  
    59    43    55 1   
@<TRIPOS>SUBSTRUCTURE
     1 Q52         1 TEMP              0 ****  ****    0 ROOT
