@<TRIPOS>MOLECULE
Q53
   42    43     1     0     0
SMALL
No Charge or Current Charge


@<TRIPOS>ATOM
      1 C10          2.4540     9.1700   -13.0150 ce         1 Q53       0.087800
      2 C13          3.6650     7.2780   -16.9420 c          1 Q53       0.606100
      3 C15          0.7530     6.1320   -15.7460 c          1 Q53       0.721000
      4 C01          4.8050    10.1460   -12.6300 c3         1 Q53       0.016100
      5 C02          6.6020     7.8760   -16.3870 ca         1 Q53      -0.089000
      6 C03          1.9560     6.6750   -13.5840 c6         1 Q53       0.421500
      7 C04          5.6390     8.8770   -16.6420 ca         1 Q53      -0.106300
      8 C05          5.8420    10.1720   -16.1210 ca         1 Q53      -0.089000
      9 C06          4.4880     7.6740   -13.0610 c6         1 Q53       0.171800
     10 C07          6.9850    10.4600   -15.3550 ca         1 Q53      -0.117500
     11 C08          3.8110     9.0270   -12.9110 c2         1 Q53      -0.300400
     12 C09          7.9320     9.4560   -15.0980 ca         1 Q53      -0.121000
     13 C11          7.7400     8.1650   -15.6150 ca         1 Q53      -0.117500
     14 C12          4.3930     8.5730   -17.4720 c3         1 Q53       0.113800
     15 C14          2.1320     6.4060   -15.1040 c3         1 Q53      -0.076300
     16 C16          1.6790    10.5170   -12.8520 c          1 Q53       0.708200
     17 N17          4.7560     8.5880   -18.9290 n8         1 Q53      -0.975200
     18 N18          2.8710     7.4740   -15.8330 ns         1 Q53      -0.417900
     19 N19          1.5870     8.0670   -13.3010 nu         1 Q53      -0.807200
     20 O20          3.7930     6.1700   -17.4600 o          1 Q53      -0.660100
     21 O22          0.4580    10.4920   -12.9940 o          1 Q53      -0.719500
     22 O23          2.2640    11.5590   -12.5840 o          1 Q53      -0.719500
     23 S24          3.4570     6.2250   -12.6230 ss         1 Q53      -0.570000
     24 H3           4.7070    10.9570   -13.3600 hc         1 Q53       0.008033
     25 H4           4.6540    10.5640   -11.6270 hc         1 Q53       0.008033
     26 H5           5.8450     9.8020   -12.6810 hc         1 Q53       0.008033
     27 H6           6.4700     6.8720   -16.7840 ha         1 Q53       0.122500
     28 H7           1.1700     5.9920   -13.2200 h2         1 Q53       0.081700
     29 H8           5.1130    10.9580   -16.3080 ha         1 Q53       0.122500
     30 H9           5.3790     7.6230   -12.4180 h1         1 Q53       0.029700
     31 H10          4.8350     7.5450   -14.0940 h1         1 Q53       0.029700
     32 H11          7.1330    11.4610   -14.9560 ha         1 Q53       0.099500
     33 H13          8.8140     9.6790   -14.5020 ha         1 Q53       0.093000
     34 H14          8.4750     7.3870   -15.4190 ha         1 Q53       0.099500
     35 H15          3.6770     9.3920   -17.3150 h1         1 Q53       0.079700
     36 H16          2.7030     5.4740   -15.1970 h1         1 Q53       0.067700
     37 H17          5.3070     9.4320   -19.1230 hn         1 Q53       0.388000
     38 H18          5.4120     7.8200   -19.1080 hn         1 Q53       0.388000
     39 H20          2.8340     8.4110   -15.4480 hn         1 Q53       0.331500
     40 H21          0.5990     8.3220   -13.3890 hn         1 Q53       0.524000
     41 O21          0.0890     7.0740   -16.1590 o          1 Q53      -0.721000
     42 O1           0.4040     4.9660   -15.8680 o          1 Q53      -0.721000
@<TRIPOS>BOND
     1     1    11 2   
     2     1    16 1   
     3     1    19 1   
     4     2    14 1   
     5     2    18 1   
     6     2    20 2   
     7     3    15 1   
     8     3    41 1   
     9     3    42 1   
    10     4    11 1   
    11     4    24 1   
    12     4    25 1   
    13     4    26 1   
    14     5     7 ar  
    15     5    13 ar  
    16     5    27 1   
    17     6    15 1   
    18     6    19 1   
    19     6    23 1   
    20     6    28 1   
    21     7     8 ar  
    22     7    14 1   
    23     8    10 ar  
    24     8    29 1   
    25     9    11 1   
    26     9    23 1   
    27     9    30 1   
    28     9    31 1   
    29    10    12 ar  
    30    10    32 1   
    31    12    13 ar  
    32    12    33 1   
    33    13    34 1   
    34    14    17 1   
    35    14    35 1   
    36    15    18 1   
    37    15    36 1   
    38    16    21 1   
    39    16    22 1   
    40    17    37 1   
    41    17    38 1   
    42    18    39 1   
    43    19    40 1   
@<TRIPOS>SUBSTRUCTURE
     1 Q53         1 TEMP              0 ****  ****    0 ROOT
