@<TRIPOS>MOLECULE
Q53
   42    43     1     0     0
SMALL
abcg2


@<TRIPOS>ATOM
      1 C10          2.2990     8.9190   -12.7760 ce         1 Q53       0.087800
      2 C13          3.8590     7.2190   -16.8260 c          1 Q53       0.606100
      3 C15          0.5520     7.0870   -15.5790 c          1 Q53       0.721000
      4 C01          4.3620    10.4010   -12.6760 c3         1 Q53       0.016100
      5 C02          6.8230     7.7860   -16.4090 ca         1 Q53      -0.089000
      6 C03          2.2040     6.6260   -13.7400 c6         1 Q53       0.421500
      7 C04          5.8320     8.7240   -16.7020 ca         1 Q53      -0.106300
      8 C05          5.9840    10.0240   -16.2340 ca         1 Q53      -0.089000
      9 C06          4.5740     8.0030   -13.2800 c6         1 Q53       0.171800
     10 C07          7.0960    10.3840   -15.4800 ca         1 Q53      -0.117500
     11 C08          3.6290     9.1040   -12.8880 c2         1 Q53      -0.300400
     12 C09          8.0680     9.4420   -15.1820 ca         1 Q53      -0.121000
     13 C11          7.9290     8.1400   -15.6520 ca         1 Q53      -0.117500
     14 C12          4.6190     8.3440   -17.5320 c3         1 Q53       0.113800
     15 C14          2.0330     6.7260   -15.2700 c3         1 Q53      -0.076300
     16 C16          1.2910     9.9930   -12.3330 c          1 Q53       0.708200
     17 N17          4.9140     7.9240   -18.8890 n8         1 Q53      -0.975200
     18 N18          2.9480     7.6200   -15.9290 ns         1 Q53      -0.417900
     19 N19          1.6640     7.7060   -12.9790 nu         1 Q53      -0.807200
     20 O20          4.1160     6.0460   -17.0670 o          1 Q53      -0.660100
     21 O22          0.0990     9.7410   -12.6140 o          1 Q53      -0.719500
     22 O23          1.7130    10.9930   -11.7290 o          1 Q53      -0.719500
     23 S24          3.9150     6.3160   -13.2100 ss         1 Q53      -0.570000
     24 H3           3.7520    11.2770   -12.8680 hc         1 Q53       0.008033
     25 H4           4.7510    10.4910   -11.6570 hc         1 Q53       0.008033
     26 H5           5.2280    10.4410   -13.3410 hc         1 Q53       0.008033
     27 H6           6.7270     6.7670   -16.7630 ha         1 Q53       0.122500
     28 H7           1.6690     5.7210   -13.4470 h2         1 Q53       0.081700
     29 H8           5.2240    10.7650   -16.4540 ha         1 Q53       0.122500
     30 H9           5.4250     7.9970   -12.5910 h1         1 Q53       0.029700
     31 H10          4.9920     8.1950   -14.2700 h1         1 Q53       0.029700
     32 H11          7.1960    11.4010   -15.1230 ha         1 Q53       0.099500
     33 H13          8.9320     9.7170   -14.5900 ha         1 Q53       0.093000
     34 H14          8.6840     7.3990   -15.4250 ha         1 Q53       0.099500
     35 H15          3.9720     9.2240   -17.5900 h1         1 Q53       0.079700
     36 H16          2.2280     5.7260   -15.6630 h1         1 Q53       0.067700
     37 H17          5.4920     8.6250   -19.3350 hn         1 Q53       0.388000
     38 H18          5.4570     7.0700   -18.8750 hn         1 Q53       0.388000
     39 H20          2.7140     8.6010   -15.8970 hn         1 Q53       0.331500
     40 H21          0.6610     7.8140   -13.0260 hn         1 Q53       0.524000
     41 O21          0.3390     8.1160   -16.2410 o          1 Q53      -0.721000
     42 O1          -0.2850     6.2940   -15.1060 o          1 Q53      -0.721000
@<TRIPOS>BOND
     1     1    11 2   
     2     1    16 1   
     3     1    19 1   
     4     2    14 1   
     5     2    18 1   
     6     2    20 2   
     7     3    15 1   
     8     3    41 1   
     9     3    42 1   
    10     4    11 1   
    11     4    24 1   
    12     4    25 1   
    13     4    26 1   
    14     5     7 ar  
    15     5    13 ar  
    16     5    27 1   
    17     6    15 1   
    18     6    19 1   
    19     6    23 1   
    20     6    28 1   
    21     7     8 ar  
    22     7    14 1   
    23     8    10 ar  
    24     8    29 1   
    25     9    11 1   
    26     9    23 1   
    27     9    30 1   
    28     9    31 1   
    29    10    12 ar  
    30    10    32 1   
    31    12    13 ar  
    32    12    33 1   
    33    13    34 1   
    34    14    17 1   
    35    14    35 1   
    36    15    18 1   
    37    15    36 1   
    38    16    21 1   
    39    16    22 1   
    40    17    37 1   
    41    17    38 1   
    42    18    39 1   
    43    19    40 1   
@<TRIPOS>SUBSTRUCTURE
     1 Q53         1 TEMP              0 ****  ****    0 ROOT
