@<TRIPOS>MOLECULE
Q54
   54    58     1     0     0
SMALL
abcg2


@<TRIPOS>ATOM
      1 C1         -12.2740    10.5430   -16.0600 ca         1 Q54      -0.110000
      2 C2         -10.9080    10.6590   -16.2760 ca         1 Q54       0.122000
      3 C3         -10.3470    10.3210   -17.4940 ca         1 Q54      -0.117000
      4 C7         -17.3070     6.6200   -19.9070 ca         1 Q54      -0.135000
      5 C8         -18.6430     6.8710   -19.6020 ca         1 Q54      -0.109600
      6 C9         -18.9710     8.0490   -18.9340 ca         1 Q54      -0.101000
      7 C10        -17.9710     8.9600   -18.6240 ca         1 Q54      -0.127000
      8 C11        -14.7400    10.0250   -19.5840 c3         1 Q54       0.175600
      9 C12        -13.8940     7.7600   -19.0160 c3         1 Q54       0.235800
     10 C13        -16.2670     7.5020   -19.5780 ca         1 Q54       0.240000
     11 C14        -16.6430     8.7160   -18.9500 ca         1 Q54       0.022100
     12 C15        -13.4580     9.1850   -19.4280 c6         1 Q54      -0.045700
     13 C19        -14.5450     4.7230   -19.8400 cy         1 Q54      -0.116700
     14 C20        -14.2460     3.4210   -20.6230 cy         1 Q54      -0.086900
     15 C21        -13.3960     2.9390   -19.4210 cy         1 Q54      -0.097400
     16 C22        -12.7680     9.1690   -20.8010 c6         1 Q54      -0.067400
     17 C24        -10.4910     9.5310   -19.8580 c6         1 Q54      -0.030100
     18 N1         -14.9380     7.2140   -19.8720 nh         1 Q54      -0.838400
     19 O1         -15.7470     9.7090   -18.6140 os         1 Q54      -0.377100
     20 O2         -20.9010     6.1230   -19.6570 o          1 Q54      -0.723000
     21 O3         -19.3390     4.8130   -20.5830 o          1 Q54      -0.723000
     22 C17        -14.5980     6.0200   -20.6350 c3         1 Q54       0.243800
     23 C18        -13.3160     4.4090   -18.9450 cy         1 Q54      -0.086900
     24 C4         -11.1510     9.8560   -18.5390 ca         1 Q54      -0.065300
     25 C5         -12.5350     9.7290   -18.3430 ca         1 Q54      -0.053300
     26 C6         -13.0670    10.0730   -17.0950 ca         1 Q54      -0.089000
     27 C23        -11.3470     8.6290   -20.7380 c6         1 Q54      -0.072400
     28 CL1         -9.8740    11.2360   -14.9800 cl         1 Q54      -0.238000
     29 H1         -12.7060    10.8070   -15.1040 ha         1 Q54       0.127000
     30 H2          -9.2790    10.4150   -17.6420 ha         1 Q54       0.118000
     31 H3         -17.0870     5.6860   -20.3980 ha         1 Q54       0.133000
     32 H4         -20.0010     8.2540   -18.6800 ha         1 Q54       0.133000
     33 H5         -18.2030     9.9000   -18.1390 ha         1 Q54       0.100000
     34 H6         -14.5200    11.0850   -19.4560 h1         1 Q54       0.050200
     35 H7         -15.1550     9.8760   -20.5820 h1         1 Q54       0.050200
     36 H8         -14.2240     7.7710   -17.9760 h1         1 Q54       0.045700
     37 H9         -13.0320     7.1000   -19.0600 h1         1 Q54       0.045700
     38 H10        -15.4620     4.6030   -19.2600 hc         1 Q54       0.086700
     39 H11        -15.0960     2.8110   -20.9320 hc         1 Q54       0.044950
     40 H12        -13.6210     3.6250   -21.4970 hc         1 Q54       0.044950
     41 H13        -13.9830     2.3250   -18.7360 hc         1 Q54       0.042700
     42 H14        -12.4590     2.4270   -19.6380 hc         1 Q54       0.042700
     43 H15        -12.7430    10.1910   -21.1950 hc         1 Q54       0.049700
     44 H16        -13.3820     8.5840   -21.4880 hc         1 Q54       0.049700
     45 H17         -9.5130     9.0830   -19.6710 hc         1 Q54       0.043700
     46 H18        -10.3000    10.4710   -20.3880 hc         1 Q54       0.043700
     47 H20        -13.6210     6.1900   -21.0960 h1         1 Q54       0.047200
     48 H21        -15.3110     5.9160   -21.4560 h1         1 Q54       0.047200
     49 H22        -12.4170     4.8980   -19.3270 hc         1 Q54       0.044950
     50 H23        -13.3980     4.6090   -17.8760 hc         1 Q54       0.044950
     51 H24        -14.1310     9.9770   -16.9300 ha         1 Q54       0.148000
     52 H25        -11.3490     7.6120   -20.3370 hc         1 Q54       0.042200
     53 H26        -10.9200     8.5720   -21.7410 hc         1 Q54       0.042200
     54 C16        -19.7140     5.8520   -19.9780 c          1 Q54       0.703600
@<TRIPOS>BOND
     1     1     2 ar  
     2     1    26 ar  
     3     1    29 1   
     4     2     3 ar  
     5     2    28 1   
     6     3    24 ar  
     7     3    30 1   
     8     4     5 ar  
     9     4    10 ar  
    10     4    31 1   
    11     5     6 ar  
    12     5    54 1   
    13     6     7 ar  
    14     6    32 1   
    15     7    11 ar  
    16     7    33 1   
    17     8    12 1   
    18     8    19 1   
    19     8    34 1   
    20     8    35 1   
    21     9    12 1   
    22     9    18 1   
    23     9    36 1   
    24     9    37 1   
    25    10    11 ar  
    26    10    18 1   
    27    11    19 1   
    28    12    16 1   
    29    12    25 1   
    30    13    14 1   
    31    13    22 1   
    32    13    23 1   
    33    13    38 1   
    34    14    15 1   
    35    14    39 1   
    36    14    40 1   
    37    15    23 1   
    38    15    41 1   
    39    15    42 1   
    40    16    27 1   
    41    16    43 1   
    42    16    44 1   
    43    17    24 1   
    44    17    27 1   
    45    17    45 1   
    46    17    46 1   
    47    18    22 1   
    48    20    54 1   
    49    21    54 1   
    50    22    47 1   
    51    22    48 1   
    52    23    49 1   
    53    23    50 1   
    54    24    25 ar  
    55    25    26 ar  
    56    26    51 1   
    57    27    52 1   
    58    27    53 1   
@<TRIPOS>SUBSTRUCTURE
     1 Q54         1 TEMP              0 ****  ****    0 ROOT
