@<TRIPOS>MOLECULE
Q54
   54    58     1     0     0
SMALL
No Charge or Current Charge


@<TRIPOS>ATOM
      1 C1         -12.3860    10.7630   -16.0790 ca         1 Q54      -0.110000
      2 C2         -10.9940    10.8180   -16.2140 ca         1 Q54       0.122000
      3 C3         -10.3860    10.3370   -17.3800 ca         1 Q54      -0.117000
      4 C7         -17.4350     6.5780   -19.7150 ca         1 Q54      -0.135000
      5 C8         -18.7830     6.8790   -19.4040 ca         1 Q54      -0.109600
      6 C9         -19.0810     8.1490   -18.8660 ca         1 Q54      -0.101000
      7 C10        -18.0650     9.0930   -18.6630 ca         1 Q54      -0.127000
      8 C11        -14.7320    10.0400   -19.7370 c3         1 Q54       0.175600
      9 C12        -13.9560     7.7500   -18.9570 c3         1 Q54       0.235800
     10 C13        -16.3900     7.5100   -19.5130 ca         1 Q54       0.240000
     11 C14        -16.7320     8.8000   -18.9940 ca         1 Q54       0.022100
     12 C15        -13.4700     9.1540   -19.4380 c6         1 Q54      -0.045700
     13 C19        -14.4300     4.6860   -20.0010 cy         1 Q54      -0.116700
     14 C20        -14.0310     3.4610   -20.8950 cy         1 Q54      -0.086900
     15 C21        -13.3010     2.9140   -19.6250 cy         1 Q54      -0.097400
     16 C22        -12.6700     9.0540   -20.7780 c6         1 Q54      -0.067400
     17 C24        -10.4220     9.2990   -19.6720 c6         1 Q54      -0.030100
     18 N1         -15.0350     7.1290   -19.7550 nh         1 Q54      -0.838400
     19 O1         -15.8190     9.8260   -18.8110 os         1 Q54      -0.377100
     20 O2         -21.0310     6.1420   -19.3060 o          1 Q54      -0.723000
     21 O3         -19.5960     4.7740   -20.1270 o          1 Q54      -0.723000
     22 C17        -14.6570     6.0440   -20.6970 c3         1 Q54       0.243800
     23 C18        -13.0710     4.4170   -19.2620 cy         1 Q54      -0.086900
     24 C4         -11.1620     9.8000   -18.4270 ca         1 Q54      -0.065300
     25 C5         -12.5810     9.7590   -18.3120 ca         1 Q54      -0.053300
     26 C6         -13.1720    10.2350   -17.1160 ca         1 Q54      -0.089000
     27 C23        -11.2810     8.4170   -20.5950 c6         1 Q54      -0.072400
     28 Cl1        -10.0090    11.4800   -14.9160 cl         1 Q54      -0.238000
     29 H1         -12.8570    11.1260   -15.1690 ha         1 Q54       0.127000
     30 H2          -9.3040    10.3810   -17.4720 ha         1 Q54       0.118000
     31 H3         -17.2050     5.5910   -20.1000 ha         1 Q54       0.133000
     32 H4         -20.1050     8.4120   -18.6080 ha         1 Q54       0.133000
     33 H5         -18.3160    10.0720   -18.2620 ha         1 Q54       0.100000
     34 H6         -14.4190    11.0920   -19.7100 h1         1 Q54       0.050200
     35 H7         -15.0850     9.8410   -20.7580 h1         1 Q54       0.050200
     36 H8         -14.3110     7.8470   -17.9220 h1         1 Q54       0.045700
     37 H9         -13.0900     7.0810   -18.8930 h1         1 Q54       0.045700
     38 H10        -15.3020     4.4820   -19.3700 hc         1 Q54       0.086700
     39 H11        -14.8610     2.8520   -21.2700 hc         1 Q54       0.044950
     40 H12        -13.3670     3.7010   -21.7350 hc         1 Q54       0.044950
     41 H13        -13.9460     2.3690   -18.9260 hc         1 Q54       0.042700
     42 H14        -12.3990     2.3210   -19.8080 hc         1 Q54       0.042700
     43 H15        -12.5370    10.0600   -21.2020 hc         1 Q54       0.049700
     44 H16        -13.2410     8.4940   -21.5300 hc         1 Q54       0.049700
     45 H17         -9.5220     8.7420   -19.3770 hc         1 Q54       0.043700
     46 H18        -10.0670    10.1700   -20.2400 hc         1 Q54       0.043700
     47 H20        -13.7350     6.3060   -21.2320 h1         1 Q54       0.047200
     48 H21        -15.4340     5.9160   -21.4630 h1         1 Q54       0.047200
     49 H22        -12.1910     4.8700   -19.7360 hc         1 Q54       0.044950
     50 H23        -13.0520     4.6540   -18.1930 hc         1 Q54       0.044950
     51 H24        -14.2470    10.1920   -16.9710 ha         1 Q54       0.148000
     52 H25        -11.3650     7.4040   -20.1810 hc         1 Q54       0.042200
     53 H26        -10.7850     8.3090   -21.5690 hc         1 Q54       0.042200
     54 C16        -19.8870     5.8530   -19.6290 c          1 Q54       0.703600
@<TRIPOS>BOND
     1     1     2 ar  
     2     1    26 ar  
     3     1    29 1   
     4     2     3 ar  
     5     2    28 1   
     6     3    24 ar  
     7     3    30 1   
     8     4     5 ar  
     9     4    10 ar  
    10     4    31 1   
    11     5     6 ar  
    12     5    54 1   
    13     6     7 ar  
    14     6    32 1   
    15     7    11 ar  
    16     7    33 1   
    17     8    12 1   
    18     8    19 1   
    19     8    34 1   
    20     8    35 1   
    21     9    12 1   
    22     9    18 1   
    23     9    36 1   
    24     9    37 1   
    25    10    11 ar  
    26    10    18 1   
    27    11    19 1   
    28    12    16 1   
    29    12    25 1   
    30    13    14 1   
    31    13    22 1   
    32    13    23 1   
    33    13    38 1   
    34    14    15 1   
    35    14    39 1   
    36    14    40 1   
    37    15    23 1   
    38    15    41 1   
    39    15    42 1   
    40    16    27 1   
    41    16    43 1   
    42    16    44 1   
    43    17    24 1   
    44    17    27 1   
    45    17    45 1   
    46    17    46 1   
    47    18    22 1   
    48    20    54 1   
    49    21    54 1   
    50    22    47 1   
    51    22    48 1   
    52    23    49 1   
    53    23    50 1   
    54    24    25 ar  
    55    25    26 ar  
    56    26    51 1   
    57    27    52 1   
    58    27    53 1   
@<TRIPOS>SUBSTRUCTURE
     1 Q54         1 TEMP              0 ****  ****    0 ROOT
