@<TRIPOS>MOLECULE
Q55
   49    52     1     0     0
SMALL
abcg2


@<TRIPOS>ATOM
      1 N           33.4350    12.5670   -14.4800 nu         1 Q55      -0.941200
      2 C1          35.4920    11.3170   -17.3020 ca         1 Q55       0.009000
      3 C2          36.7270    11.7380   -16.8420 cp         1 Q55      -0.229500
      4 C19         44.9670    12.8600   -15.7080 c3         1 Q55       0.163900
      5 C15         42.7140    13.5770   -15.7310 ca         1 Q55       0.549300
      6 N4          42.9910    14.3470   -14.7110 nb         1 Q55      -0.739000
      7 C16         42.0260    15.1160   -14.2010 ca         1 Q55       0.350900
      8 C17         40.7520    15.1410   -14.7200 ca         1 Q55      -0.180000
      9 C18         40.4570    14.3310   -15.8160 ca         1 Q55      -0.076000
     10 C14         41.4400    13.5110   -16.3440 ca         1 Q55       0.248000
     11 C13         40.1680    12.0200   -17.8660 ca         1 Q55       0.392900
     12 N1          40.3380    11.2550   -18.9480 nb         1 Q55      -0.238000
     13 C12         39.2620    10.6030   -19.3580 ca         1 Q55       0.151900
     14 C11         38.0300    10.6900   -18.7320 ca         1 Q55      -0.275000
     15 C10         37.9580    11.5240   -17.6170 cp         1 Q55       0.243500
     16 C           34.3190    11.5560   -16.5730 ca         1 Q55      -0.120000
     17 C20         33.0580    11.1340   -17.0690 cg         1 Q55       0.335000
     18 N5          32.0220    10.8000   -17.4510 n1         1 Q55      -0.470000
     19 C5          34.4050    12.2320   -15.3510 ca         1 Q55       0.372000
     20 C4          35.6620    12.6510   -14.8790 ca         1 Q55      -0.192300
     21 C3          36.7940    12.4130   -15.6010 ca         1 Q55       0.018000
     22 C7          35.4770    13.2900   -13.5210 c5         1 Q55       0.002300
     23 C8          36.2530    14.5920   -13.3540 c3         1 Q55      -0.075100
     24 C9          35.8950    12.2550   -12.4720 c3         1 Q55       0.168600
     25 O           35.6710    12.7800   -11.1870 oh         1 Q55      -0.666000
     26 C6          33.9460    13.5170   -13.4970 c5         1 Q55       0.209800
     27 N2          39.0370    12.1800   -17.1970 nb         1 Q55      -0.261000
     28 H2          32.4610    12.5770   -14.7400 hn         1 Q55       0.500000
     29 H           35.3990    10.8090   -18.2530 ha         1 Q55       0.124000
     30 H17         45.5660    12.1550   -16.2780 h1         1 Q55       0.046700
     31 H19         45.3970    13.8580   -15.7980 h1         1 Q55       0.046700
     32 H18         44.9720    12.5700   -14.6560 h1         1 Q55       0.046700
     33 H14         42.2970    15.7280   -13.3490 h4         1 Q55       0.021100
     34 H15         39.9960    15.7850   -14.2930 ha         1 Q55       0.125000
     35 H16         39.4690    14.3430   -16.2450 ha         1 Q55       0.145000
     36 H13         42.1250    12.4210   -17.9420 hn         1 Q55       0.528000
     37 H12         39.3830     9.9730   -20.2320 h4         1 Q55       0.023100
     38 H11         37.1900    10.1230   -19.1020 ha         1 Q55       0.135000
     39 H1          37.7600    12.7340   -15.2320 ha         1 Q55       0.142000
     40 H7          36.0020    15.0830   -12.4150 hc         1 Q55       0.044033
     41 H6          37.3290    14.4090   -13.3530 hc         1 Q55       0.044033
     42 H5          36.0290    15.2830   -14.1660 hc         1 Q55       0.044033
     43 H8          35.3280    11.3280   -12.6330 h1         1 Q55       0.030700
     44 H9          36.9550    12.0150   -12.6330 h1         1 Q55       0.030700
     45 H10         35.8770    12.0980   -10.5430 ho         1 Q55       0.448000
     46 H4          33.7050    14.5420   -13.7950 h1         1 Q55       0.059200
     47 H3          33.5110    13.3380   -12.5150 h1         1 Q55       0.059200
     48 N3          41.2860    12.6700   -17.4410 nu         1 Q55      -0.921900
     49 O1          43.6620    12.8000   -16.2630 os         1 Q55      -0.476300
@<TRIPOS>BOND
     1     1    19 1   
     2     1    26 1   
     3     1    28 1   
     4     2     3 ar  
     5     2    16 ar  
     6     2    29 1   
     7     3    15 1   
     8     3    21 ar  
     9     4    30 1   
    10     4    31 1   
    11     4    32 1   
    12     4    49 1   
    13     5     6 ar  
    14     5    10 ar  
    15     5    49 1   
    16     6     7 ar  
    17     7     8 ar  
    18     7    33 1   
    19     8     9 ar  
    20     8    34 1   
    21     9    10 ar  
    22     9    35 1   
    23    10    48 1   
    24    11    12 ar  
    25    11    27 ar  
    26    11    48 1   
    27    12    13 ar  
    28    13    14 ar  
    29    13    37 1   
    30    14    15 ar  
    31    14    38 1   
    32    15    27 ar  
    33    16    17 1   
    34    16    19 ar  
    35    17    18 3   
    36    19    20 ar  
    37    20    21 ar  
    38    20    22 1   
    39    21    39 1   
    40    22    23 1   
    41    22    24 1   
    42    22    26 1   
    43    23    40 1   
    44    23    41 1   
    45    23    42 1   
    46    24    25 1   
    47    24    43 1   
    48    24    44 1   
    49    25    45 1   
    50    26    46 1   
    51    26    47 1   
    52    36    48 1   
@<TRIPOS>SUBSTRUCTURE
     1 Q55         1 TEMP              0 ****  ****    0 ROOT
