@<TRIPOS>MOLECULE
Q55
   49    52     1     0     0
SMALL
No Charge or Current Charge


@<TRIPOS>ATOM
      1 N           33.2230    12.5370   -14.5160 nu         1 Q55      -0.941200
      2 C1          35.3800    11.4580   -17.3720 ca         1 Q55       0.009000
      3 C2          36.6530    11.7420   -16.7970 cp         1 Q55      -0.229500
      4 C19         45.2790    12.9120   -15.7990 c3         1 Q55       0.163900
      5 C15         42.9410    13.6990   -15.8270 ca         1 Q55       0.549300
      6 N4          43.2730    14.6140   -14.8790 nb         1 Q55      -0.739000
      7 C16         42.3050    15.4440   -14.4370 ca         1 Q55       0.350900
      8 C17         40.9890    15.4060   -14.9220 ca         1 Q55      -0.180000
      9 C18         40.6370    14.4630   -15.9040 ca         1 Q55      -0.076000
     10 C14         41.6170    13.5640   -16.3750 ca         1 Q55       0.248000
     11 C13         40.1750    11.9420   -17.8110 ca         1 Q55       0.392900
     12 N1          40.3510    11.1230   -18.8600 nb         1 Q55      -0.238000
     13 C12         39.2640    10.4520   -19.2840 ca         1 Q55       0.151900
     14 C11         38.0180    10.6050   -18.6550 ca         1 Q55      -0.275000
     15 C10         37.9270    11.4880   -17.5530 cp         1 Q55       0.243500
     16 C           34.1850    11.7000   -16.6630 ca         1 Q55      -0.120000
     17 C20         32.9180    11.4020   -17.2620 cg         1 Q55       0.335000
     18 N5          31.8900    11.1620   -17.7610 n1         1 Q55      -0.470000
     19 C5          34.2700    12.2340   -15.3710 ca         1 Q55       0.372000
     20 C4          35.4800    12.5330   -14.7970 ca         1 Q55      -0.192300
     21 C3          36.6810    12.2920   -15.4840 ca         1 Q55       0.018000
     22 C7          35.3160    13.1270   -13.4140 c5         1 Q55       0.002300
     23 C8          36.1990    14.3900   -13.2180 c3         1 Q55      -0.075100
     24 C9          35.6510    12.0720   -12.3170 c3         1 Q55       0.168600
     25 O           35.3840    12.5730   -10.9970 oh         1 Q55      -0.666000
     26 C6          33.7660    13.4740   -13.4710 c5         1 Q55       0.209800
     27 N2          39.0300    12.1400   -17.1360 nb         1 Q55      -0.261000
     28 H2          32.3150    12.7010   -14.9580 hn         1 Q55       0.500000
     29 H           35.3140    11.0580   -18.3810 ha         1 Q55       0.124000
     30 H17         45.9050    12.1590   -16.2950 h1         1 Q55       0.046700
     31 H19         45.7220    13.8990   -15.9880 h1         1 Q55       0.046700
     32 H18         45.3070    12.7180   -14.7190 h1         1 Q55       0.046700
     33 H14         42.5950    16.1700   -13.6780 h4         1 Q55       0.021100
     34 H15         40.2530    16.1080   -14.5420 ha         1 Q55       0.125000
     35 H16         39.6260    14.4540   -16.2970 ha         1 Q55       0.145000
     36 H13         42.1680    12.1820   -17.7820 hn         1 Q55       0.528000
     37 H12         39.3960     9.7830   -20.1330 h4         1 Q55       0.023100
     38 H11         37.1630    10.0400   -19.0100 ha         1 Q55       0.135000
     39 H1          37.6260    12.5270   -15.0000 ha         1 Q55       0.142000
     40 H7          35.9540    14.9110   -12.2840 hc         1 Q55       0.044033
     41 H6          37.2650    14.1370   -13.1860 hc         1 Q55       0.044033
     42 H5          36.0530    15.1040   -14.0380 hc         1 Q55       0.044033
     43 H8          35.0550    11.1680   -12.5030 h1         1 Q55       0.030700
     44 H9          36.7090    11.7900   -12.4080 h1         1 Q55       0.030700
     45 H10         35.6200    11.8570   -10.3660 ho         1 Q55       0.448000
     46 H4          33.6300    14.5190   -13.7860 h1         1 Q55       0.059200
     47 H3          33.2700    13.3670   -12.4960 h1         1 Q55       0.059200
     48 N3          41.3230    12.5890   -17.3740 nu         1 Q55      -0.921900
     49 O1          43.9280    12.8480   -16.2990 os         1 Q55      -0.476300
@<TRIPOS>BOND
     1     1    19 1   
     2     1    26 1   
     3     1    28 1   
     4     2     3 ar  
     5     2    16 ar  
     6     2    29 1   
     7     3    15 1   
     8     3    21 ar  
     9     4    30 1   
    10     4    31 1   
    11     4    32 1   
    12     4    49 1   
    13     5     6 ar  
    14     5    10 ar  
    15     5    49 1   
    16     6     7 ar  
    17     7     8 ar  
    18     7    33 1   
    19     8     9 ar  
    20     8    34 1   
    21     9    10 ar  
    22     9    35 1   
    23    10    48 1   
    24    11    12 ar  
    25    11    27 ar  
    26    11    48 1   
    27    12    13 ar  
    28    13    14 ar  
    29    13    37 1   
    30    14    15 ar  
    31    14    38 1   
    32    15    27 ar  
    33    16    17 1   
    34    16    19 ar  
    35    17    18 3   
    36    19    20 ar  
    37    20    21 ar  
    38    20    22 1   
    39    21    39 1   
    40    22    23 1   
    41    22    24 1   
    42    22    26 1   
    43    23    40 1   
    44    23    41 1   
    45    23    42 1   
    46    24    25 1   
    47    24    43 1   
    48    24    44 1   
    49    25    45 1   
    50    26    46 1   
    51    26    47 1   
    52    36    48 1   
@<TRIPOS>SUBSTRUCTURE
     1 Q55         1 TEMP              0 ****  ****    0 ROOT
