@<TRIPOS>MOLECULE
Q57
   58    62     1     0     0
SMALL
abcg2


@<TRIPOS>ATOM
      1 C1         -12.3970    10.5860   -16.0910 ca         1 Q57      -0.111000
      2 C2         -11.0250    10.7120   -16.2480 ca         1 Q57       0.123000
      3 C3         -10.4070    10.3690   -17.4370 ca         1 Q57      -0.116000
      4 O4         -20.6580     5.6820   -19.4770 oh         1 Q57      -0.633000
      5 C7         -20.2290     6.3640   -21.7840 c          1 Q57       0.729000
      6 C8         -18.5750     6.8670   -19.9570 ca         1 Q57      -0.042300
      7 C9         -18.9500     8.0460   -19.3170 ca         1 Q57      -0.109000
      8 C10        -17.9680     8.9540   -18.9450 ca         1 Q57      -0.107000
      9 C11        -14.6990    10.0330   -19.7160 c3         1 Q57       0.172600
     10 C12        -13.8680     7.7750   -19.1000 c3         1 Q57       0.236800
     11 C13        -16.2070     7.4980   -19.7880 ca         1 Q57       0.264000
     12 C14        -16.6230     8.7120   -19.1880 ca         1 Q57       0.022100
     13 C15        -13.4210     9.2000   -19.5010 c6         1 Q57      -0.044700
     14 C16        -19.6160     5.8780   -20.4380 c3         1 Q57       0.056600
     15 C19        -14.4390     4.7290   -19.9450 cy         1 Q57      -0.115700
     16 C20        -14.0950     3.4260   -20.7080 cy         1 Q57      -0.087900
     17 C21        -13.2930     2.9580   -19.4690 cy         1 Q57      -0.096400
     18 C22        -12.6690     9.1820   -20.8410 c6         1 Q57      -0.068400
     19 C24        -11.2490     8.6490   -20.7110 c6         1 Q57      -0.072400
     20 N1         -14.8640     7.2120   -20.0010 nh         1 Q57      -0.837400
     21 O1         -15.7460     9.7050   -18.7950 os         1 Q57      -0.375100
     22 C25        -17.2250     6.6080   -20.1730 ca         1 Q57      -0.150000
     23 C17        -14.4720     6.0230   -20.7470 c3         1 Q57       0.239800
     24 C18        -13.2430     4.4320   -19.0000 cy         1 Q57      -0.087900
     25 C4         -11.1600     9.8890   -18.5130 ca         1 Q57      -0.063300
     26 C5         -12.5500     9.7540   -18.3790 ca         1 Q57      -0.056300
     27 C6         -13.1400    10.1030   -17.1580 ca         1 Q57      -0.090000
     28 CL1        -10.0540    11.3110   -14.9130 cl         1 Q57      -0.236000
     29 C23        -10.4390     9.5610   -19.7990 c6         1 Q57      -0.031100
     30 H1         -12.8740    10.8530   -15.1580 ha         1 Q57       0.127000
     31 H2          -9.3340    10.4700   -17.5370 ha         1 Q57       0.119000
     32 H3         -20.2370     5.4620   -18.6360 ho         1 Q57       0.394000
     33 H4         -19.9920     8.2590   -19.1250 ha         1 Q57       0.139000
     34 H5         -18.2310     9.8950   -18.4760 ha         1 Q57       0.107000
     35 H6         -14.4930    11.0940   -19.5750 h1         1 Q57       0.055700
     36 H7         -15.0650     9.8840   -20.7340 h1         1 Q57       0.055700
     37 H8         -14.2510     7.7930   -18.0780 h1         1 Q57       0.046200
     38 H9         -13.0010     7.1200   -19.0930 h1         1 Q57       0.046200
     39 H10        -19.1220     4.9240   -20.6450 h1         1 Q57       0.023700
     40 H11        -15.3760     4.6020   -19.4000 hc         1 Q57       0.072700
     41 H12        -14.9250     2.8060   -21.0510 hc         1 Q57       0.046700
     42 H13        -13.4360     3.6320   -21.5550 hc         1 Q57       0.046700
     43 H14        -13.9030     2.3440   -18.8050 hc         1 Q57       0.043200
     44 H15        -12.3430     2.4520   -19.6430 hc         1 Q57       0.043200
     45 H16        -12.6300    10.2030   -21.2360 hc         1 Q57       0.052200
     46 H17        -13.2490     8.5930   -21.5540 hc         1 Q57       0.052200
     47 H18        -11.2640     7.6340   -20.3050 hc         1 Q57       0.042200
     48 H19        -10.7770     8.5890   -21.6930 hc         1 Q57       0.042200
     49 H20        -16.9600     5.6700   -20.6350 ha         1 Q57       0.115000
     50 H21        -13.4770     6.2060   -21.1590 h1         1 Q57       0.054200
     51 H22        -15.1430     5.9100   -21.6000 h1         1 Q57       0.054200
     52 H23        -12.3350     4.9260   -19.3510 hc         1 Q57       0.046700
     53 H24        -13.3690     4.6390   -17.9370 hc         1 Q57       0.046700
     54 H25        -14.2100     9.9990   -17.0400 ha         1 Q57       0.146000
     55 H26         -9.4670     9.1200   -19.5650 hc         1 Q57       0.044700
     56 H27        -10.2300    10.4990   -20.3260 hc         1 Q57       0.044700
     57 O2         -21.3410     6.9360   -21.7550 o          1 Q57      -0.710500
     58 O3         -19.5140     6.1480   -22.7940 o          1 Q57      -0.710500
@<TRIPOS>BOND
     1     1     2 ar  
     2     1    27 ar  
     3     1    30 1   
     4     2     3 ar  
     5     2    28 1   
     6     3    25 ar  
     7     3    31 1   
     8     4    14 1   
     9     4    32 1   
    10     5    14 1   
    11     5    57 1   
    12     5    58 1   
    13     6     7 ar  
    14     6    14 1   
    15     6    22 ar  
    16     7     8 ar  
    17     7    33 1   
    18     8    12 ar  
    19     8    34 1   
    20     9    13 1   
    21     9    21 1   
    22     9    35 1   
    23     9    36 1   
    24    10    13 1   
    25    10    20 1   
    26    10    37 1   
    27    10    38 1   
    28    11    12 ar  
    29    11    20 1   
    30    11    22 ar  
    31    12    21 1   
    32    13    18 1   
    33    13    26 1   
    34    14    39 1   
    35    15    16 1   
    36    15    23 1   
    37    15    24 1   
    38    15    40 1   
    39    16    17 1   
    40    16    41 1   
    41    16    42 1   
    42    17    24 1   
    43    17    43 1   
    44    17    44 1   
    45    18    19 1   
    46    18    45 1   
    47    18    46 1   
    48    19    29 1   
    49    19    47 1   
    50    19    48 1   
    51    20    23 1   
    52    22    49 1   
    53    23    50 1   
    54    23    51 1   
    55    24    52 1   
    56    24    53 1   
    57    25    26 ar  
    58    25    29 1   
    59    26    27 ar  
    60    27    54 1   
    61    29    55 1   
    62    29    56 1   
@<TRIPOS>SUBSTRUCTURE
     1 Q57         1 TEMP              0 ****  ****    0 ROOT
