@<TRIPOS>MOLECULE
Q57
   58    62     1     0     0
SMALL
No Charge or Current Charge


@<TRIPOS>ATOM
      1 C1         -12.5610    10.7850   -16.0910 ca         1 Q57      -0.111000
      2 C2         -11.1630    10.8450   -16.1280 ca         1 Q57       0.123000
      3 C3         -10.4730    10.3730   -17.2520 ca         1 Q57      -0.116000
      4 O4         -20.6030     5.6380   -19.0370 oh         1 Q57      -0.633000
      5 C7         -20.5540     6.2210   -21.5100 c          1 Q57       0.729000
      6 C8         -18.6820     6.8970   -19.8840 ca         1 Q57      -0.042300
      7 C9         -19.0320     8.1530   -19.3620 ca         1 Q57      -0.109000
      8 C10        -18.0400     9.1020   -19.0790 ca         1 Q57      -0.107000
      9 C11        -14.6420    10.0720   -19.9070 c3         1 Q57       0.172600
     10 C12        -13.9150     7.7810   -19.0850 c3         1 Q57       0.236800
     11 C13        -16.3000     7.5330   -19.8170 ca         1 Q57       0.264000
     12 C14        -16.6850     8.8180   -19.3160 ca         1 Q57       0.022100
     13 C15        -13.4010     9.1880   -19.5250 c6         1 Q57      -0.044700
     14 C16        -19.7570     5.8520   -20.1990 c3         1 Q57       0.056600
     15 C19        -14.3220     4.7160   -20.1510 cy         1 Q57      -0.115700
     16 C20        -13.8580     3.4840   -21.0040 cy         1 Q57      -0.087900
     17 C21        -13.2380     2.9400   -19.6750 cy         1 Q57      -0.096400
     18 C22        -12.5100     9.0950   -20.8060 c6         1 Q57      -0.068400
     19 C24        -11.1340     8.4620   -20.5280 c6         1 Q57      -0.072400
     20 N1         -14.9300     7.1610   -19.9640 nh         1 Q57      -0.837400
     21 O1         -15.7910     9.8470   -19.0620 os         1 Q57      -0.375100
     22 C25        -17.3230     6.5980   -20.1020 ca         1 Q57      -0.150000
     23 C17        -14.4830     6.0720   -20.8690 c3         1 Q57       0.239800
     24 C18        -13.0300     4.4440   -19.3020 cy         1 Q57      -0.087900
     25 C4         -11.1720     9.8380   -18.3520 ca         1 Q57      -0.063300
     26 C5         -12.5950     9.7910   -18.3370 ca         1 Q57      -0.056300
     27 C6         -13.2700    10.2590   -17.1830 ca         1 Q57      -0.090000
     28 Cl1        -10.2740    11.5050   -14.7620 cl         1 Q57      -0.236000
     29 C23        -10.3450     9.3440   -19.5450 c6         1 Q57      -0.031100
     30 H1         -13.0960    11.1420   -15.2150 ha         1 Q57       0.127000
     31 H2          -9.3880    10.4210   -17.2670 ha         1 Q57       0.119000
     32 H3         -20.0080     5.4490   -18.2810 ho         1 Q57       0.394000
     33 H4         -20.0770     8.3980   -19.1820 ha         1 Q57       0.139000
     34 H5         -18.3230    10.0770   -18.6920 ha         1 Q57       0.107000
     35 H6         -14.3360    11.1240   -19.8520 h1         1 Q57       0.055700
     36 H7         -14.9210     9.8780   -20.9520 h1         1 Q57       0.055700
     37 H8         -14.3450     7.8720   -18.0790 h1         1 Q57       0.046200
     38 H9         -13.0540     7.1140   -18.9620 h1         1 Q57       0.046200
     39 H10        -19.2420     4.9070   -20.4170 h1         1 Q57       0.023700
     40 H11        -15.2440     4.5190   -19.5920 hc         1 Q57       0.072700
     41 H12        -14.6580     2.8780   -21.4430 hc         1 Q57       0.046700
     42 H13        -13.1260     3.7170   -21.7870 hc         1 Q57       0.046700
     43 H14        -13.9410     2.4020   -19.0290 hc         1 Q57       0.043200
     44 H15        -12.3270     2.3410   -19.7810 hc         1 Q57       0.043200
     45 H16        -12.3510    10.1020   -21.2180 hc         1 Q57       0.052200
     46 H17        -13.0250     8.5340   -21.5970 hc         1 Q57       0.052200
     47 H18        -11.2430     7.4470   -20.1240 hc         1 Q57       0.042200
     48 H19        -10.5710     8.3590   -21.4660 hc         1 Q57       0.042200
     49 H20        -17.0700     5.6140   -20.4800 ha         1 Q57       0.115000
     50 H21        -13.5180     6.3270   -21.3280 h1         1 Q57       0.054200
     51 H22        -15.1950     5.9450   -21.6960 h1         1 Q57       0.054200
     52 H23        -12.1120     4.8900   -19.7040 hc         1 Q57       0.046700
     53 H24        -13.0980     4.6860   -18.2360 hc         1 Q57       0.046700
     54 H25        -14.3530    10.2120   -17.1140 ha         1 Q57       0.146000
     55 H26         -9.4650     8.7900   -19.1900 hc         1 Q57       0.044700
     56 H27         -9.9550    10.2190   -20.0840 hc         1 Q57       0.044700
     57 O2         -21.3180     7.1810   -21.4970 o          1 Q57      -0.710500
     58 O3         -20.3860     5.5210   -22.5020 o          1 Q57      -0.710500
@<TRIPOS>BOND
     1     1     2 ar  
     2     1    27 ar  
     3     1    30 1   
     4     2     3 ar  
     5     2    28 1   
     6     3    25 ar  
     7     3    31 1   
     8     4    14 1   
     9     4    32 1   
    10     5    14 1   
    11     5    57 1   
    12     5    58 1   
    13     6     7 ar  
    14     6    14 1   
    15     6    22 ar  
    16     7     8 ar  
    17     7    33 1   
    18     8    12 ar  
    19     8    34 1   
    20     9    13 1   
    21     9    21 1   
    22     9    35 1   
    23     9    36 1   
    24    10    13 1   
    25    10    20 1   
    26    10    37 1   
    27    10    38 1   
    28    11    12 ar  
    29    11    20 1   
    30    11    22 ar  
    31    12    21 1   
    32    13    18 1   
    33    13    26 1   
    34    14    39 1   
    35    15    16 1   
    36    15    23 1   
    37    15    24 1   
    38    15    40 1   
    39    16    17 1   
    40    16    41 1   
    41    16    42 1   
    42    17    24 1   
    43    17    43 1   
    44    17    44 1   
    45    18    19 1   
    46    18    45 1   
    47    18    46 1   
    48    19    29 1   
    49    19    47 1   
    50    19    48 1   
    51    20    23 1   
    52    22    49 1   
    53    23    50 1   
    54    23    51 1   
    55    24    52 1   
    56    24    53 1   
    57    25    26 ar  
    58    25    29 1   
    59    26    27 ar  
    60    27    54 1   
    61    29    55 1   
    62    29    56 1   
@<TRIPOS>SUBSTRUCTURE
     1 Q57         1 TEMP              0 ****  ****    0 ROOT
