@<TRIPOS>MOLECULE
Q58
   66    70     1     0     0
SMALL
No Charge or Current Charge


@<TRIPOS>ATOM
      1 C15         43.6300    13.9990   -12.4370 c          1 Q58       0.617700
      2 C13         41.7200    13.9830   -14.1560 ca         1 Q58      -0.121000
      3 C14         41.1970    13.6070   -15.4050 ca         1 Q58      -0.079000
      4 N5          33.5410    12.1450   -14.3480 nu         1 Q58      -0.918100
      5 C16         43.1810    15.1720   -10.2390 c6         1 Q58       0.111700
      6 C17         42.3100    16.3860    -9.8330 c6         1 Q58      -0.131400
      7 C12         43.0330    13.6130   -13.7810 ca         1 Q58      -0.125600
      8 N4          34.3760    11.5890   -16.4380 nb         1 Q58      -0.733000
      9 C10         43.2860    12.4880   -15.9580 ca         1 Q58       0.104100
     10 C9          41.9590    12.8440   -16.3110 ca         1 Q58       0.288000
     11 O           42.3960    15.6770    -7.4940 os         1 Q58      -0.449000
     12 N3          42.8190    14.7190   -11.5860 ns         1 Q58      -0.503900
     13 N2          41.4580    12.4590   -17.5710 nu         1 Q58      -0.930900
     14 N1          39.1350    12.2660   -17.2780 nb         1 Q58      -0.267000
     15 C11         43.8090    12.8680   -14.7000 ca         1 Q58      -0.135000
     16 C5          37.9160    12.0270   -17.8000 cp         1 Q58       0.252500
     17 C           36.1660    12.1450   -12.3070 c3         1 Q58      -0.076100
     18 C1          35.5460    13.1290   -13.3340 c5         1 Q58       0.005300
     19 C2          35.7290    12.6110   -14.7400 ca         1 Q58      -0.227300
     20 C3          36.8710    12.6090   -15.5470 ca         1 Q58       0.024000
     21 C4          36.7480    12.0750   -16.8610 cp         1 Q58      -0.281500
     22 N           40.1750    11.9720   -19.4190 nb         1 Q58      -0.233000
     23 C8          40.1960    12.2320   -18.1020 ca         1 Q58       0.387900
     24 C7          38.9670    11.7370   -19.9630 ca         1 Q58       0.146900
     25 C6          37.7980    11.7560   -19.1850 ca         1 Q58      -0.272000
     26 C21         45.3950    11.3510   -16.6110 c3         1 Q58       0.148900
     27 O2          44.0420    11.7640   -16.8740 os         1 Q58      -0.349100
     28 O1          44.7710    13.6950   -12.1170 o          1 Q58      -0.602100
     29 C20         42.9860    14.0330    -9.2060 c6         1 Q58      -0.131400
     30 C19         43.2520    14.5490    -7.7730 c6         1 Q58       0.156600
     31 C18         42.6060    16.8020    -8.3730 c6         1 Q58       0.156600
     32 C22         35.4660    11.5800   -17.2410 ca         1 Q58       0.413900
     33 C23         34.5660    12.0980   -15.2300 ca         1 Q58       0.613900
     34 C24         33.9500    13.1390   -13.2930 c5         1 Q58       0.219800
     35 H8          41.0880    14.5700   -13.4950 ha         1 Q58       0.113000
     36 H9          40.1980    13.9340   -15.6690 ha         1 Q58       0.134000
     37 H24         32.6340    12.1900   -14.8090 hn         1 Q58       0.502000
     38 H11         44.2380    15.4800   -10.2410 h1         1 Q58       0.081700
     39 H13         42.5040    17.2320   -10.5050 hc         1 Q58       0.056700
     40 H12         41.2430    16.1410    -9.9300 hc         1 Q58       0.056700
     41 H10         41.8910    14.9310   -11.9240 hn         1 Q58       0.312500
     42 H6          42.2020    12.1430   -18.1960 hn         1 Q58       0.523000
     43 H7          44.8210    12.5910   -14.4210 ha         1 Q58       0.140000
     44 H           35.9410    12.4430   -11.2760 hc         1 Q58       0.044367
     45 H2          35.7750    11.1300   -12.4470 hc         1 Q58       0.044367
     46 H1          37.2570    12.0950   -12.4120 hc         1 Q58       0.044367
     47 H3          37.8110    13.0120   -15.1720 ha         1 Q58       0.144000
     48 H5          38.9360    11.5330   -21.0320 h4         1 Q58       0.022100
     49 H4          36.8390    11.5740   -19.6580 ha         1 Q58       0.134000
     50 H20         45.7960    10.7950   -17.4670 h1         1 Q58       0.045367
     51 H22         46.0430    12.2200   -16.4370 h1         1 Q58       0.045367
     52 H21         45.4390    10.6960   -15.7310 h1         1 Q58       0.045367
     53 H19         41.9640    13.6350    -9.2680 hc         1 Q58       0.056700
     54 H18         43.6640    13.1990    -9.4300 hc         1 Q58       0.056700
     55 H16         43.0470    13.7530    -7.0420 h1         1 Q58       0.047200
     56 H17         44.3040    14.8520    -7.6630 h1         1 Q58       0.047200
     57 H15         43.6450    17.1520    -8.2760 h1         1 Q58       0.047200
     58 H14         41.9390    17.6220    -8.0710 h1         1 Q58       0.047200
     59 H23         35.3020    11.1440   -18.2250 h4         1 Q58       0.018100
     60 H29         36.2040    15.9930   -11.8150 ho         1 Q58       0.448000
     61 H26         33.5780    14.1420   -13.5480 h1         1 Q58       0.054200
     62 H25         33.5570    12.8950   -12.2950 h1         1 Q58       0.054200
     63 C25         36.1550    14.5480   -13.1410 c3         1 Q58       0.170600
     64 O3          35.7730    15.1120   -11.8780 oh         1 Q58      -0.663000
     65 H27         37.2490    14.4840   -13.2130 h1         1 Q58       0.023200
     66 H28         35.8080    15.1950   -13.9580 h1         1 Q58       0.023200
@<TRIPOS>BOND
     1     1     7 1   
     2     1    12 1   
     3     1    28 2   
     4     2     3 ar  
     5     2     7 ar  
     6     2    35 1   
     7     3    10 ar  
     8     3    36 1   
     9     4    33 1   
    10     4    34 1   
    11     4    37 1   
    12     5     6 1   
    13     5    12 1   
    14     5    29 1   
    15     5    38 1   
    16     6    31 1   
    17     6    39 1   
    18     6    40 1   
    19     7    15 ar  
    20     8    32 ar  
    21     8    33 ar  
    22     9    10 ar  
    23     9    15 ar  
    24     9    27 1   
    25    10    13 1   
    26    11    30 1   
    27    11    31 1   
    28    12    41 1   
    29    13    23 1   
    30    13    42 1   
    31    14    16 ar  
    32    14    23 ar  
    33    15    43 1   
    34    16    21 1   
    35    16    25 ar  
    36    17    18 1   
    37    17    44 1   
    38    17    45 1   
    39    17    46 1   
    40    18    19 1   
    41    18    34 1   
    42    18    63 1   
    43    19    20 ar  
    44    19    33 ar  
    45    20    21 ar  
    46    20    47 1   
    47    21    32 ar  
    48    22    23 ar  
    49    22    24 ar  
    50    24    25 ar  
    51    24    48 1   
    52    25    49 1   
    53    26    27 1   
    54    26    50 1   
    55    26    51 1   
    56    26    52 1   
    57    29    30 1   
    58    29    53 1   
    59    29    54 1   
    60    30    55 1   
    61    30    56 1   
    62    31    57 1   
    63    31    58 1   
    64    32    59 1   
    65    34    61 1   
    66    34    62 1   
    67    60    64 1   
    68    63    64 1   
    69    63    65 1   
    70    63    66 1   
@<TRIPOS>SUBSTRUCTURE
     1 Q58         1 TEMP              0 ****  ****    0 ROOT
