@<TRIPOS>MOLECULE
Q58
   66    70     1     0     0
SMALL
bcc


@<TRIPOS>ATOM
      1 C15         42.9430    14.1000   -12.7370 c          1 Q58       0.684700
      2 C13         41.5540    14.5080   -14.8070 ca         1 Q58      -0.139000
      3 C14         41.2480    14.2020   -16.1220 ca         1 Q58      -0.097000
      4 N5          34.7570    12.6090   -13.3770 nu         1 Q58      -0.862900
      5 C16         41.9620    14.6310   -10.5240 c6         1 Q58       0.111700
      6 C17         41.8340    16.1190   -10.2050 c6         1 Q58      -0.131400
      7 C12         42.6060    13.8580   -14.1720 ca         1 Q58      -0.125600
      8 N4          35.0060    11.9260   -15.6370 nb         1 Q58      -0.733000
      9 C10         43.0510    12.6100   -16.1900 ca         1 Q58       0.104100
     10 C9          41.9500    13.2230   -16.8110 ca         1 Q58       0.149600
     11 O           40.7860    15.5900    -8.0760 os         1 Q58      -0.402600
     12 N3          41.8880    14.3720   -11.9470 ns         1 Q58      -0.570900
     13 N2          41.5640    12.8230   -18.0950 nu         1 Q58      -0.737300
     14 N1          39.3930    12.4660   -17.4340 nb         1 Q58      -0.793000
     15 C11         43.3800    12.9440   -14.8830 ca         1 Q58      -0.153000
     16 C5          38.1530    12.0630   -17.6880 cp         1 Q58       0.580800
     17 C           37.7120    12.2500   -12.0730 c3         1 Q58      -0.076100
     18 C1          36.9710    13.3150   -12.8860 c5         1 Q58       0.005300
     19 C2          36.8050    12.8460   -14.3080 ca         1 Q58      -0.292600
     20 C3          37.6840    12.7150   -15.3360 ca         1 Q58       0.006000
     21 C4          37.2190    12.1870   -16.5650 cp         1 Q58      -0.346800
     22 N           40.0970    11.9320   -19.6270 nb         1 Q58      -0.759000
     23 C8          40.3000    12.3930   -18.3920 ca         1 Q58       0.913900
     24 C7          38.8580    11.5260   -19.8770 ca         1 Q58       0.475200
     25 C6          37.8290    11.5660   -18.9530 ca         1 Q58      -0.420600
     26 C21         44.8470    11.0690   -16.3770 c3         1 Q58       0.125700
     27 O2          43.7090    11.7020   -16.9310 os         1 Q58      -0.325900
     28 O1          44.0910    14.0170   -12.3240 o          1 Q58      -0.602100
     29 C20         40.8750    13.8610    -9.7830 c6         1 Q58      -0.131400
     30 C19         40.9150    14.2030    -8.3010 c6         1 Q58       0.133400
     31 C18         41.8170    16.3250    -8.6970 c6         1 Q58       0.133400
     32 C22         35.8830    11.8170   -16.6370 ca         1 Q58       0.479200
     33 C23         35.4730    12.4320   -14.5080 ca         1 Q58       0.679200
     34 C24         35.4900    13.4390   -12.4310 c5         1 Q58       0.219800
     35 H8          40.9860    15.2830   -14.3070 ha         1 Q58       0.131000
     36 H9          40.4380    14.7200   -16.6150 ha         1 Q58       0.152000
     37 H24         33.7500    12.6020   -13.3900 hn         1 Q58       0.446800
     38 H11         42.9380    14.2780   -10.1810 h1         1 Q58       0.081700
     39 H13         42.6660    16.6780   -10.6390 hc         1 Q58       0.056700
     40 H12         40.9100    16.5110   -10.6430 hc         1 Q58       0.056700
     41 H10         40.9660    14.3470   -12.3520 hn         1 Q58       0.312500
     42 H6          42.2820    12.5560   -18.7510 hn         1 Q58       0.467800
     43 H7          44.2120    12.4660   -14.3820 ha         1 Q58       0.158000
     44 H           37.7840    12.5310   -11.0220 hc         1 Q58       0.044367
     45 H2          37.1930    11.2920   -12.1270 hc         1 Q58       0.044367
     46 H1          38.7240    12.1020   -12.4590 hc         1 Q58       0.044367
     47 H3          38.7240    13.0040   -15.2430 ha         1 Q58       0.162000
     48 H5          38.6720    11.1450   -20.8750 h4         1 Q58       0.022100
     49 H4          36.8410    11.2270   -19.2210 ha         1 Q58       0.152000
     50 H20         45.2280    10.3980   -17.1420 h1         1 Q58       0.045367
     51 H22         45.6250    11.7910   -16.1190 h1         1 Q58       0.045367
     52 H21         44.5940    10.4860   -15.4890 h1         1 Q58       0.045367
     53 H19         39.8910    14.1220   -10.1880 hc         1 Q58       0.056700
     54 H18         41.0090    12.7840    -9.9140 hc         1 Q58       0.056700
     55 H16         40.0940    13.7150    -7.7750 h1         1 Q58       0.047200
     56 H17         41.8550    13.8310    -7.8650 h1         1 Q58       0.047200
     57 H15         42.7950    16.0400    -8.2790 h1         1 Q58       0.047200
     58 H14         41.6520    17.3760    -8.4550 h1         1 Q58       0.047200
     59 H23         35.4800    11.4060   -17.5560 h4         1 Q58       0.018100
     60 H29         38.0750    16.0030   -11.4940 ho         1 Q58       0.409000
     61 H26         35.1480    14.4780   -12.4840 h1         1 Q58       0.054200
     62 H25         35.3430    13.0920   -11.4090 h1         1 Q58       0.054200
     63 C25         37.6940    14.6540   -12.8340 c3         1 Q58       0.147400
     64 O3          37.7580    15.0950   -11.5000 oh         1 Q58      -0.600800
     65 H27         38.7000    14.5280   -13.2650 h1         1 Q58       0.023200
     66 H28         37.1670    15.3730   -13.4720 h1         1 Q58       0.023200
@<TRIPOS>BOND
     1     1     7 1   
     2     1    12 1   
     3     1    28 2   
     4     2     3 ar  
     5     2     7 ar  
     6     2    35 1   
     7     3    10 ar  
     8     3    36 1   
     9     4    33 1   
    10     4    34 1   
    11     4    37 1   
    12     5     6 1   
    13     5    12 1   
    14     5    29 1   
    15     5    38 1   
    16     6    31 1   
    17     6    39 1   
    18     6    40 1   
    19     7    15 ar  
    20     8    32 ar  
    21     8    33 ar  
    22     9    10 ar  
    23     9    15 ar  
    24     9    27 1   
    25    10    13 1   
    26    11    30 1   
    27    11    31 1   
    28    12    41 1   
    29    13    23 1   
    30    13    42 1   
    31    14    16 ar  
    32    14    23 ar  
    33    15    43 1   
    34    16    21 1   
    35    16    25 ar  
    36    17    18 1   
    37    17    44 1   
    38    17    45 1   
    39    17    46 1   
    40    18    19 1   
    41    18    34 1   
    42    18    63 1   
    43    19    20 ar  
    44    19    33 ar  
    45    20    21 ar  
    46    20    47 1   
    47    21    32 ar  
    48    22    23 ar  
    49    22    24 ar  
    50    24    25 ar  
    51    24    48 1   
    52    25    49 1   
    53    26    27 1   
    54    26    50 1   
    55    26    51 1   
    56    26    52 1   
    57    29    30 1   
    58    29    53 1   
    59    29    54 1   
    60    30    55 1   
    61    30    56 1   
    62    31    57 1   
    63    31    58 1   
    64    32    59 1   
    65    34    61 1   
    66    34    62 1   
    67    60    64 1   
    68    63    64 1   
    69    63    65 1   
    70    63    66 1   
@<TRIPOS>SUBSTRUCTURE
     1 Q58         1 TEMP              0 ****  ****    0 ROOT
