@<TRIPOS>MOLECULE
Q5A
   50    52     1     0     0
SMALL
abcg2


@<TRIPOS>ATOM
      1 C18         -8.6400     1.6060     0.3670 c3         1 Q5A      -0.118400
      2 C17         -7.4100     0.8120     0.6470 cc         1 Q5A       0.320300
      3 N4          -6.3230     0.9410    -0.1820 nc         1 Q5A      -0.714000
      4 C19         -7.2380    -0.0590     1.6720 cd         1 Q5A      -0.314000
      5 S1          -5.6610    -0.7570     1.6230 ss         1 Q5A       0.054600
      6 C16         -5.3490     0.1860     0.2080 cd         1 Q5A       0.536300
      7 N3          -4.1550     0.1470    -0.4700 ns         1 Q5A      -0.474400
      8 C15         -3.0750    -0.6020    -0.1080 c          1 Q5A       0.605100
      9 O2          -3.1190    -1.3360     0.8610 o          1 Q5A      -0.562100
     10 C12         -1.8560    -0.4040    -0.9760 c6         1 Q5A      -0.132700
     11 C13         -1.1110     0.8670    -0.5360 c6         1 Q5A      -0.102900
     12 C14          0.1630     1.0630    -1.3500 c6         1 Q5A       0.089500
     13 C11         -0.9180    -1.6060    -0.9340 c6         1 Q5A      -0.102900
     14 C10          0.3430    -1.3120    -1.7360 c6         1 Q5A       0.089500
     15 N2           1.0260    -0.1110    -1.2840 n          1 Q5A      -0.398800
     16 C9           1.9460    -0.2550    -0.2670 c          1 Q5A       0.649100
     17 O1           2.0610    -1.3010     0.3640 o          1 Q5A      -0.627100
     18 N1           2.7450     0.8240    -0.0220 n          1 Q5A      -0.424800
     19 C1           3.1010     1.8200    -1.0100 c3         1 Q5A       0.093300
     20 C2           3.4940     0.8900     1.2190 c3         1 Q5A       0.157300
     21 C3           4.9520     0.5230     1.0790 ca         1 Q5A      -0.132300
     22 C4           5.3380    -0.7700     0.7270 ca         1 Q5A      -0.070000
     23 C5           6.6770    -1.1070     0.6010 ca         1 Q5A      -0.156500
     24 C6           7.6300    -0.1320     0.8320 ca         1 Q5A       0.174000
     25 F1           8.9300    -0.4530     0.7100 f          1 Q5A      -0.180000
     26 C7           7.2890     1.1580     1.1830 ca         1 Q5A      -0.156500
     27 C8           5.9410     1.4740     1.3020 ca         1 Q5A      -0.070000
     28 H1          -9.0450     1.3670    -0.6170 hc         1 Q5A       0.048367
     29 H2          -9.4110     1.4070     1.1090 hc         1 Q5A       0.048367
     30 H3          -8.4250     2.6750     0.3790 hc         1 Q5A       0.048367
     31 H4          -7.9440    -0.3240     2.4440 h4         1 Q5A       0.159000
     32 H5          -4.1000     0.7410    -1.2860 hn         1 Q5A       0.337500
     33 H6          -2.1950    -0.2550    -2.0080 hc         1 Q5A       0.059700
     34 H7          -1.7450     1.7490    -0.6570 hc         1 Q5A       0.066450
     35 H8          -0.8590     0.7970     0.5270 hc         1 Q5A       0.066450
     36 H9          -0.0900     1.2480    -2.3970 h1         1 Q5A       0.059450
     37 H10          0.6780     1.9490    -0.9900 h1         1 Q5A       0.059450
     38 H11         -0.6440    -1.8370     0.0970 hc         1 Q5A       0.066450
     39 H12         -1.4120    -2.4880    -1.3470 hc         1 Q5A       0.066450
     40 H13          1.0260    -2.1580    -1.7000 h1         1 Q5A       0.059450
     41 H14          0.0840    -1.1610    -2.7890 h1         1 Q5A       0.059450
     42 H15          2.7110     2.8090    -0.7550 h1         1 Q5A       0.040700
     43 H16          4.1880     1.8970    -1.0760 h1         1 Q5A       0.040700
     44 H17          2.7350     1.5420    -1.9940 h1         1 Q5A       0.040700
     45 H18          3.4200     1.9130     1.5990 h1         1 Q5A       0.062700
     46 H19          3.0130     0.2480     1.9540 h1         1 Q5A       0.062700
     47 H20          4.5840    -1.5260     0.5560 ha         1 Q5A       0.126500
     48 H21          6.9750    -2.1110     0.3310 ha         1 Q5A       0.132000
     49 H22          8.0550     1.9020     1.3570 ha         1 Q5A       0.132000
     50 H23          5.6610     2.4850     1.5750 ha         1 Q5A       0.126500
@<TRIPOS>BOND
     1     1     2 1   
     2     1    28 1   
     3     1    29 1   
     4     1    30 1   
     5     2     3 1   
     6     2     4 2   
     7     3     6 2   
     8     4     5 1   
     9     4    31 1   
    10     5     6 1   
    11     6     7 1   
    12     7     8 1   
    13     7    32 1   
    14     8     9 2   
    15     8    10 1   
    16    10    11 1   
    17    10    13 1   
    18    10    33 1   
    19    11    12 1   
    20    11    34 1   
    21    11    35 1   
    22    12    15 1   
    23    12    36 1   
    24    12    37 1   
    25    13    14 1   
    26    13    38 1   
    27    13    39 1   
    28    14    15 1   
    29    14    40 1   
    30    14    41 1   
    31    15    16 1   
    32    16    17 2   
    33    16    18 1   
    34    18    19 1   
    35    18    20 1   
    36    19    42 1   
    37    19    43 1   
    38    19    44 1   
    39    20    21 1   
    40    20    45 1   
    41    20    46 1   
    42    21    22 ar  
    43    21    27 ar  
    44    22    23 ar  
    45    22    47 1   
    46    23    24 ar  
    47    23    48 1   
    48    24    25 1   
    49    24    26 ar  
    50    26    27 ar  
    51    26    49 1   
    52    27    50 1   
@<TRIPOS>SUBSTRUCTURE
     1 Q5A         1 TEMP              0 ****  ****    0 ROOT
