@<TRIPOS>MOLECULE
Q5A
   50    52     1     0     0
SMALL
No Charge or Current Charge


@<TRIPOS>ATOM
      1 C18         -9.1240     0.6830    -1.1170 c3         1 Q5A      -0.118400
      2 C17         -7.9480     0.3930    -0.2330 cc         1 Q5A       0.320300
      3 N4          -6.6890     0.4970    -0.7640 nc         1 Q5A      -0.714000
      4 C19         -8.0150     0.0260     1.0850 cd         1 Q5A      -0.314000
      5 S1          -6.4110    -0.2170     1.7470 ss         1 Q5A       0.054600
      6 C16         -5.7790     0.2080     0.1490 cd         1 Q5A       0.536300
      7 N3          -4.4580     0.2580    -0.1960 ns         1 Q5A      -0.474400
      8 C15         -3.3510     0.0030     0.5730 c          1 Q5A       0.605100
      9 O2          -3.4120    -0.3240     1.7480 o          1 Q5A      -0.562100
     10 C12         -1.9920     0.1560    -0.1470 c6         1 Q5A      -0.132700
     11 C13         -1.1180     1.3060     0.4180 c6         1 Q5A      -0.102900
     12 C14          0.2210     1.4380    -0.3510 c6         1 Q5A       0.089500
     13 C11         -1.2070    -1.1740    -0.2770 c6         1 Q5A      -0.102900
     14 C10          0.1120    -0.9500    -1.0500 c6         1 Q5A       0.089500
     15 N2           0.9370     0.1310    -0.4420 n          1 Q5A      -0.398800
     16 C9           2.1310    -0.1650     0.2620 c          1 Q5A       0.649100
     17 O1           2.3220    -1.3010     0.6720 o          1 Q5A      -0.627100
     18 N1           3.1060     0.8410     0.4790 n          1 Q5A      -0.424800
     19 C1           3.2470     2.0190    -0.4130 c3         1 Q5A       0.093300
     20 C2           4.2220     0.6080     1.4270 c3         1 Q5A       0.157300
     21 C3           5.5370     0.2200     0.7560 ca         1 Q5A      -0.132300
     22 C4           5.7220    -1.0840     0.2530 ca         1 Q5A      -0.070000
     23 C5           6.9340    -1.4390    -0.3660 ca         1 Q5A      -0.156500
     24 C6           7.9640    -0.4930    -0.4810 ca         1 Q5A       0.174000
     25 F1           9.1270    -0.8350    -1.0750 f          1 Q5A      -0.180000
     26 C7           7.7910     0.8060     0.0190 ca         1 Q5A      -0.156500
     27 C8           6.5790     1.1630     0.6380 ca         1 Q5A      -0.070000
     28 H1          -9.1430     0.0010    -1.9750 hc         1 Q5A       0.048367
     29 H2         -10.0660     0.5640    -0.5690 hc         1 Q5A       0.048367
     30 H3          -9.0820     1.7100    -1.4970 hc         1 Q5A       0.048367
     31 H4          -8.8980    -0.1130     1.6960 h4         1 Q5A       0.159000
     32 H5          -4.2590     0.5180    -1.1500 hn         1 Q5A       0.337500
     33 H6          -2.2390     0.4540    -1.1760 hc         1 Q5A       0.059700
     34 H7          -1.6650     2.2590     0.3770 hc         1 Q5A       0.066450
     35 H8          -0.9040     1.1150     1.4790 hc         1 Q5A       0.066450
     36 H9           0.0320     1.8150    -1.3660 h1         1 Q5A       0.059450
     37 H10          0.8190     2.1870     0.1780 h1         1 Q5A       0.059450
     38 H11         -0.9810    -1.5740     0.7210 hc         1 Q5A       0.066450
     39 H12         -1.8160    -1.9310    -0.7910 hc         1 Q5A       0.066450
     40 H13          0.6780    -1.8910    -1.0960 h1         1 Q5A       0.059450
     41 H14         -0.1200    -0.6710    -2.0880 h1         1 Q5A       0.059450
     42 H15          2.8530     2.9140     0.0850 h1         1 Q5A       0.040700
     43 H16          4.3040     2.1910    -0.6490 h1         1 Q5A       0.040700
     44 H17          2.7150     1.8560    -1.3580 h1         1 Q5A       0.040700
     45 H18          4.3730     1.5270     2.0080 h1         1 Q5A       0.062700
     46 H19          3.9440    -0.1690     2.1510 h1         1 Q5A       0.062700
     47 H20          4.9280    -1.8230     0.3400 ha         1 Q5A       0.126500
     48 H21          7.0760    -2.4440    -0.7540 ha         1 Q5A       0.132000
     49 H22          8.5930     1.5330    -0.0730 ha         1 Q5A       0.132000
     50 H23          6.4510     2.1730     1.0230 ha         1 Q5A       0.126500
@<TRIPOS>BOND
     1     1     2 1   
     2     1    28 1   
     3     1    29 1   
     4     1    30 1   
     5     2     3 1   
     6     2     4 2   
     7     3     6 2   
     8     4     5 1   
     9     4    31 1   
    10     5     6 1   
    11     6     7 1   
    12     7     8 1   
    13     7    32 1   
    14     8     9 2   
    15     8    10 1   
    16    10    11 1   
    17    10    13 1   
    18    10    33 1   
    19    11    12 1   
    20    11    34 1   
    21    11    35 1   
    22    12    15 1   
    23    12    36 1   
    24    12    37 1   
    25    13    14 1   
    26    13    38 1   
    27    13    39 1   
    28    14    15 1   
    29    14    40 1   
    30    14    41 1   
    31    15    16 1   
    32    16    17 2   
    33    16    18 1   
    34    18    19 1   
    35    18    20 1   
    36    19    42 1   
    37    19    43 1   
    38    19    44 1   
    39    20    21 1   
    40    20    45 1   
    41    20    46 1   
    42    21    22 ar  
    43    21    27 ar  
    44    22    23 ar  
    45    22    47 1   
    46    23    24 ar  
    47    23    48 1   
    48    24    25 1   
    49    24    26 ar  
    50    26    27 ar  
    51    26    49 1   
    52    27    50 1   
@<TRIPOS>SUBSTRUCTURE
     1 Q5A         1 TEMP              0 ****  ****    0 ROOT
