@<TRIPOS>MOLECULE
Q5C
   37    38     1     0     0
SMALL
abcg2


@<TRIPOS>ATOM
      1 N1           8.5170     0.2010    21.5390 ns         1 Q5C      -0.136000
      2 N3           7.6450    -4.7970    24.0010 nb         1 Q5C      -0.658000
      3 C4           8.0470     1.4390    19.4650 ca         1 Q5C       0.319900
      4 C5           7.6740     0.5450    20.4720 ca         1 Q5C      -0.071000
      5 C6           9.6730     0.7790    21.9460 c          1 Q5C       0.593100
      6 C7          10.3080     0.1530    23.1880 c3         1 Q5C       0.017000
      7 C8           8.5400    -0.3210    24.8090 c          1 Q5C       0.588100
      8 C10          8.0820    -2.8130    25.2970 ca         1 Q5C      -0.155300
      9 C13          8.6360    -5.4130    24.6520 ca         1 Q5C       0.339900
     10 O1           8.3140     0.8740    24.9770 o          1 Q5C      -0.582100
     11 C9           7.7500    -1.3750    25.5790 c3         1 Q5C      -0.112100
     12 C14          7.3840    -3.5290    24.3250 ca         1 Q5C       0.334900
     13 C12          9.3880    -4.7960    25.6440 ca         1 Q5C      -0.159000
     14 C11          9.1050    -3.4780    25.9710 ca         1 Q5C      -0.070000
     15 N2           9.4720    -0.7600    23.9340 ns         1 Q5C      -0.520900
     16 O           10.2270     1.7190    21.3920 o          1 Q5C      -0.577100
     17 C1           6.4010    -0.0500    20.4180 ca         1 Q5C      -0.092300
     18 C            5.9390    -1.0180    21.4670 c3         1 Q5C      -0.053800
     19 N            7.2450     1.7660    18.4480 nb         1 Q5C      -0.643000
     20 C3           6.0360     1.2060    18.3980 ca         1 Q5C       0.310900
     21 C2           5.5850     0.3030    19.3510 ca         1 Q5C      -0.139000
     22 H1           8.2020    -0.5610    22.1220 hn         1 Q5C       0.155000
     23 H2           9.0220     1.8990    19.4920 h4         1 Q5C       0.053100
     24 H3          11.1990    -0.3830    22.8590 h1         1 Q5C       0.087200
     25 H4          10.6260     0.9790    23.8230 h1         1 Q5C       0.087200
     26 H5           8.8340    -6.4420    24.3720 h4         1 Q5C       0.027100
     27 H6           7.8990    -1.1470    26.6360 hc         1 Q5C       0.086200
     28 H7           6.6990    -1.1770    25.3580 hc         1 Q5C       0.086200
     29 H8           6.5740    -3.0490    23.7870 h4         1 Q5C       0.020100
     30 H9          10.1760    -5.3400    26.1490 ha         1 Q5C       0.131000
     31 H10          9.6730    -2.9650    26.7390 ha         1 Q5C       0.126000
     32 H11          9.6500    -1.7490    23.8570 hn         1 Q5C       0.327500
     33 H12          6.5870    -1.8990    21.5090 hc         1 Q5C       0.045700
     34 H13          5.9520    -0.5610    22.4600 hc         1 Q5C       0.045700
     35 H14          4.9260    -1.3550    21.2580 hc         1 Q5C       0.045700
     36 H15          5.4010     1.4860    17.5640 h4         1 Q5C       0.022100
     37 H16          4.5950    -0.1260    19.2650 ha         1 Q5C       0.121000
@<TRIPOS>BOND
     1     1     4 1   
     2     1     5 1   
     3     1    22 1   
     4     2     9 ar  
     5     2    12 ar  
     6     3     4 ar  
     7     3    19 ar  
     8     3    23 1   
     9     4    17 ar  
    10     5     6 1   
    11     5    16 2   
    12     6    15 1   
    13     6    24 1   
    14     6    25 1   
    15     7    10 2   
    16     7    11 1   
    17     7    15 1   
    18     8    11 1   
    19     8    12 ar  
    20     8    14 ar  
    21     9    13 ar  
    22     9    26 1   
    23    11    27 1   
    24    11    28 1   
    25    12    29 1   
    26    13    14 ar  
    27    13    30 1   
    28    14    31 1   
    29    15    32 1   
    30    17    18 1   
    31    17    21 ar  
    32    18    33 1   
    33    18    34 1   
    34    18    35 1   
    35    19    20 ar  
    36    20    21 ar  
    37    20    36 1   
    38    21    37 1   
@<TRIPOS>SUBSTRUCTURE
     1 Q5C         1 TEMP              0 ****  ****    0 ROOT
