@<TRIPOS>MOLECULE
Q5C
   37    38     1     0     0
SMALL
No Charge or Current Charge


@<TRIPOS>ATOM
      1 N1           8.7420     0.5090    21.9040 ns         1 Q5C      -0.136000
      2 N3           5.5780    -3.4340    24.7050 nb         1 Q5C      -0.658000
      3 C4           8.0930     1.2640    19.6060 ca         1 Q5C       0.319900
      4 C5           8.0670     0.3140    20.6610 ca         1 Q5C      -0.071000
      5 C6           9.4200     1.6000    22.4350 c          1 Q5C       0.593100
      6 C7          10.0470     1.3880    23.8350 c3         1 Q5C       0.017000
      7 C8           8.7130    -0.2870    25.1910 c          1 Q5C       0.588100
      8 C10          7.8420    -2.6710    25.1660 ca         1 Q5C      -0.155300
      9 C13          6.0990    -4.4450    23.9740 ca         1 Q5C       0.339900
     10 O1           7.7670     0.4750    25.3160 o          1 Q5C      -0.582100
     11 C9           8.7600    -1.6650    25.8620 c3         1 Q5C      -0.112100
     12 C14          6.4390    -2.5670    25.2870 ca         1 Q5C       0.334900
     13 C12          7.4810    -4.6270    23.8000 ca         1 Q5C      -0.159000
     14 C11          8.3740    -3.7280    24.4040 ca         1 Q5C      -0.070000
     15 N2           9.8130     0.0420    24.4270 ns         1 Q5C      -0.520900
     16 O            9.5260     2.6750    21.8540 o          1 Q5C      -0.577100
     17 C1           7.3440    -0.8840    20.4590 ca         1 Q5C      -0.092300
     18 C            7.2630    -1.9620    21.5340 c3         1 Q5C      -0.053800
     19 N            7.4590     1.0830    18.4220 nb         1 Q5C      -0.643000
     20 C3           6.7680    -0.0640    18.2460 ca         1 Q5C       0.310900
     21 C2           6.6880    -1.0640    19.2280 ca         1 Q5C      -0.139000
     22 H1           8.7250    -0.2990    22.5130 hn         1 Q5C       0.155000
     23 H2           8.6420     2.1990    19.6890 h4         1 Q5C       0.053100
     24 H3          11.1280     1.5500    23.7380 h1         1 Q5C       0.087200
     25 H4           9.6410     2.1590    24.5030 h1         1 Q5C       0.087200
     26 H5           5.3870    -5.1300    23.5140 h4         1 Q5C       0.027100
     27 H6           9.7900    -2.0390    25.8540 hc         1 Q5C       0.086200
     28 H7           8.4350    -1.5460    26.9020 hc         1 Q5C       0.086200
     29 H8           5.9890    -1.7660    25.8730 h4         1 Q5C       0.020100
     30 H9           7.8480    -5.4570    23.2030 ha         1 Q5C       0.131000
     31 H10          9.4490    -3.8530    24.2830 ha         1 Q5C       0.126000
     32 H11         10.5560    -0.6480    24.3770 hn         1 Q5C       0.327500
     33 H12          8.2580    -2.3550    21.7720 hc         1 Q5C       0.045700
     34 H13          6.8240    -1.5640    22.4560 hc         1 Q5C       0.045700
     35 H14          6.6430    -2.8080    21.2160 hc         1 Q5C       0.045700
     36 H15          6.2660    -0.1870    17.2870 h4         1 Q5C       0.022100
     37 H16          6.1170    -1.9660    19.0250 ha         1 Q5C       0.121000
@<TRIPOS>BOND
     1     1     4 1   
     2     1     5 1   
     3     1    22 1   
     4     2     9 ar  
     5     2    12 ar  
     6     3     4 ar  
     7     3    19 ar  
     8     3    23 1   
     9     4    17 ar  
    10     5     6 1   
    11     5    16 2   
    12     6    15 1   
    13     6    24 1   
    14     6    25 1   
    15     7    10 2   
    16     7    11 1   
    17     7    15 1   
    18     8    11 1   
    19     8    12 ar  
    20     8    14 ar  
    21     9    13 ar  
    22     9    26 1   
    23    11    27 1   
    24    11    28 1   
    25    12    29 1   
    26    13    14 ar  
    27    13    30 1   
    28    14    31 1   
    29    15    32 1   
    30    17    18 1   
    31    17    21 ar  
    32    18    33 1   
    33    18    34 1   
    34    18    35 1   
    35    19    20 ar  
    36    20    21 ar  
    37    20    36 1   
    38    21    37 1   
@<TRIPOS>SUBSTRUCTURE
     1 Q5C         1 TEMP              0 ****  ****    0 ROOT
