@<TRIPOS>MOLECULE
Q5D
   34    36     1     0     0
SMALL
abcg2


@<TRIPOS>ATOM
      1 C4          34.8620    61.0910   105.6420 ca         1 Q5D      -0.007000
      2 C5          35.7270    61.2400   106.7670 cg         1 Q5D       0.320000
      3 C6          33.4970    60.8580   105.8430 ca         1 Q5D      -0.077500
      4 N1          32.0870    61.5450   101.3790 n          1 Q5D      -0.380800
      5 C7          32.6640    60.7080   104.7480 ca         1 Q5D      -0.081500
      6 C8          32.7650    62.8180   101.4280 cx         1 Q5D       0.035700
      7 C9          32.5990    63.7190   102.6130 cx         1 Q5D      -0.127400
      8 C10         31.9410    64.0690   101.3090 cx         1 Q5D      -0.127400
      9 C11         31.3550    61.2370   100.1430 c3         1 Q5D       0.172300
     10 C12         32.2740    60.9380    98.9990 cc         1 Q5D      -0.242300
     11 C13         32.5660    61.7370    97.9290 cd         1 Q5D      -0.123000
     12 C14         33.5220    61.1640    97.0430 cd         1 Q5D      -0.137000
     13 C15         33.9500    59.9350    97.4580 cc         1 Q5D      -0.237000
     14 N           36.4230    61.3580   107.6790 n1         1 Q5D      -0.446000
     15 C3          35.3830    61.1750   104.3460 ca         1 Q5D      -0.077500
     16 C2          34.5350    61.0430   103.2590 ca         1 Q5D      -0.081500
     17 C1          33.1750    60.8140   103.4540 ca         1 Q5D      -0.110600
     18 C           32.2560    60.5610   102.2940 c          1 Q5D       0.609700
     19 O           31.6960    59.4660   102.2140 o          1 Q5D      -0.591100
     20 S           33.1840    59.4650    98.9270 ss         1 Q5D       0.218000
     21 H1          33.1010    60.7930   106.8470 ha         1 Q5D       0.129500
     22 H2          31.6090    60.5160   104.8940 ha         1 Q5D       0.129500
     23 H3          33.7270    62.8280   100.9300 h1         1 Q5D       0.084700
     24 H4          33.4690    64.2750   102.9350 hc         1 Q5D       0.080450
     25 H5          31.9590    63.3750   103.4120 hc         1 Q5D       0.080450
     26 H6          32.3470    64.8740   100.7120 hc         1 Q5D       0.080450
     27 H7          30.8670    63.9520   101.2540 hc         1 Q5D       0.080450
     28 H8          30.7440    62.1000    99.8860 h1         1 Q5D       0.075200
     29 H9          30.6970    60.3990   100.3550 h1         1 Q5D       0.075200
     30 H10         32.1100    62.7080    97.7860 ha         1 Q5D       0.131000
     31 H11         33.8760    61.6450    96.1410 ha         1 Q5D       0.134000
     32 H12         34.6630    59.2790    96.9850 h4         1 Q5D       0.151000
     33 H13         36.4410    61.3450   104.1990 ha         1 Q5D       0.129500
     34 H14         34.9370    61.1130   102.2570 ha         1 Q5D       0.129500
@<TRIPOS>BOND
     1     1     2 1   
     2     1     3 ar  
     3     1    15 ar  
     4     2    14 3   
     5     3     5 ar  
     6     3    21 1   
     7     4     6 1   
     8     4     9 1   
     9     4    18 1   
    10     5    17 ar  
    11     5    22 1   
    12     6     7 1   
    13     6     8 1   
    14     6    23 1   
    15     7     8 1   
    16     7    24 1   
    17     7    25 1   
    18     8    26 1   
    19     8    27 1   
    20     9    10 1   
    21     9    28 1   
    22     9    29 1   
    23    10    11 2   
    24    10    20 1   
    25    11    12 1   
    26    11    30 1   
    27    12    13 2   
    28    12    31 1   
    29    13    20 1   
    30    13    32 1   
    31    15    16 ar  
    32    15    33 1   
    33    16    17 ar  
    34    16    34 1   
    35    17    18 1   
    36    18    19 2   
@<TRIPOS>SUBSTRUCTURE
     1 Q5D         1 TEMP              0 ****  ****    0 ROOT
