@<TRIPOS>MOLECULE
Q5D
   34    36     1     0     0
SMALL
No Charge or Current Charge


@<TRIPOS>ATOM
      1 C4          34.9330    61.0920   105.6530 ca         1 Q5D      -0.007000
      2 C5          35.8190    61.2430   106.7750 cg         1 Q5D       0.320000
      3 C6          33.6630    60.5090   105.8260 ca         1 Q5D      -0.077500
      4 N1          32.1160    61.6220   101.2890 n          1 Q5D      -0.380800
      5 C7          32.7980    60.3600   104.7280 ca         1 Q5D      -0.081500
      6 C8          32.6530    62.9800   101.4150 cx         1 Q5D       0.035700
      7 C9          32.4710    63.8370   102.6480 cx         1 Q5D      -0.127400
      8 C10         31.7790    64.2140   101.3640 cx         1 Q5D      -0.127400
      9 C11         31.3510    61.3600   100.0470 c3         1 Q5D       0.172300
     10 C12         32.2730    60.8970    98.9540 cc         1 Q5D      -0.242300
     11 C13         32.9780    61.6660    98.0620 cd         1 Q5D      -0.123000
     12 C14         33.7680    60.9060    97.1590 cd         1 Q5D      -0.137000
     13 C15         33.6730    59.5520    97.3570 cc         1 Q5D      -0.237000
     14 N           36.5390    61.3770   107.6850 n1         1 Q5D      -0.446000
     15 C3          35.3340    61.5100   104.3710 ca         1 Q5D      -0.077500
     16 C2          34.4680    61.3620   103.2740 ca         1 Q5D      -0.081500
     17 C1          33.1780    60.8070   103.4440 ca         1 Q5D      -0.110600
     18 C           32.2250    60.6130   102.2810 c          1 Q5D       0.609700
     19 O           31.5780    59.5740   102.1960 o          1 Q5D      -0.591100
     20 S           32.5840    59.1820    98.6910 ss         1 Q5D       0.218000
     21 H1          33.3450    60.1700   106.8100 ha         1 Q5D       0.129500
     22 H2          31.8200    59.9070   104.8790 ha         1 Q5D       0.129500
     23 H3          33.6060    63.0230   100.8870 h1         1 Q5D       0.084700
     24 H4          33.3160    64.4410   102.9690 hc         1 Q5D       0.080450
     25 H5          31.8560    63.4490   103.4560 hc         1 Q5D       0.080450
     26 H6          32.1550    65.0750   100.8170 hc         1 Q5D       0.080450
     27 H7          30.7010    64.0810   101.3200 hc         1 Q5D       0.080450
     28 H8          30.8390    62.2750    99.7220 h1         1 Q5D       0.075200
     29 H9          30.5710    60.6070   100.2220 h1         1 Q5D       0.075200
     30 H10         32.9370    62.7520    98.0480 ha         1 Q5D       0.131000
     31 H11         34.3880    61.3530    96.3880 ha         1 Q5D       0.134000
     32 H12         34.1580    58.7440    96.8230 h4         1 Q5D       0.151000
     33 H13         36.3200    61.9440   104.2200 ha         1 Q5D       0.129500
     34 H14         34.8160    61.6590   102.2880 ha         1 Q5D       0.129500
@<TRIPOS>BOND
     1     1     2 1   
     2     1     3 ar  
     3     1    15 ar  
     4     2    14 3   
     5     3     5 ar  
     6     3    21 1   
     7     4     6 1   
     8     4     9 1   
     9     4    18 1   
    10     5    17 ar  
    11     5    22 1   
    12     6     7 1   
    13     6     8 1   
    14     6    23 1   
    15     7     8 1   
    16     7    24 1   
    17     7    25 1   
    18     8    26 1   
    19     8    27 1   
    20     9    10 1   
    21     9    28 1   
    22     9    29 1   
    23    10    11 2   
    24    10    20 1   
    25    11    12 1   
    26    11    30 1   
    27    12    13 2   
    28    12    31 1   
    29    13    20 1   
    30    13    32 1   
    31    15    16 ar  
    32    15    33 1   
    33    16    17 ar  
    34    16    34 1   
    35    17    18 1   
    36    18    19 2   
@<TRIPOS>SUBSTRUCTURE
     1 Q5D         1 TEMP              0 ****  ****    0 ROOT
