@<TRIPOS>MOLECULE
Q5E
   38    40     1     0     0
SMALL
No Charge or Current Charge


@<TRIPOS>ATOM
      1 OAQ         -7.0030     4.1490    31.5640 o          1 Q5E      -0.471000
      2 CAO         -5.9040     4.1690    31.0310 c          1 Q5E       0.579000
      3 CAC         -5.5680     4.1790    29.5360 c5         1 Q5E      -0.165200
      4 CAD         -5.7220     5.6180    28.9180 c5         1 Q5E       0.173200
      5 CAJ         -4.6780     5.5180    27.7500 c5         1 Q5E       0.291000
      6 Cl2         -4.9910     4.2150    26.5030 cl         1 Q5E      -0.176500
      7 Cl1         -4.4940     7.0690    26.8000 cl         1 Q5E      -0.176500
      8 Cl6         -7.4190     6.0550    28.4360 cl         1 Q5E      -0.151500
      9 CAE         -5.0050     6.6170    29.8240 c2         1 Q5E       0.040800
     10 Cl5         -5.7650     7.8380    30.8120 cl         1 Q5E      -0.048500
     11 CAF         -3.6930     6.4120    29.7000 c2         1 Q5E       0.040800
     12 Cl4         -2.4240     7.3480    30.4490 cl         1 Q5E      -0.048500
     13 CAA         -3.4940     5.2460    28.7400 c5         1 Q5E       0.173200
     14 Cl3         -1.8430     5.1030    27.9930 cl         1 Q5E      -0.151500
     15 CAB         -4.0130     3.9320    29.4450 c5         1 Q5E      -0.165200
     16 CAN         -3.5370     3.8230    30.9050 c          1 Q5E       0.579000
     17 OAR         -2.4400     3.4880    31.3240 o          1 Q5E      -0.471000
     18 NAP         -4.6830     4.0070    31.6810 n          1 Q5E      -0.370400
     19 CAS         -4.6480     3.8160    33.1530 c3         1 Q5E       0.107000
     20 CAT         -4.5340     5.1350    33.9450 c3         1 Q5E      -0.091400
     21 CAU         -3.1340     5.7870    33.8710 c3         1 Q5E      -0.077400
     22 CAV         -2.9920     7.0990    34.6800 c3         1 Q5E      -0.054400
     23 CAW         -3.8510     8.2790    34.1550 c3         1 Q5E      -0.208400
     24 CAX         -3.5300     9.5600    34.9460 c          1 Q5E       0.717000
     25 OAZ         -2.6220    10.2730    34.5480 o          1 Q5E      -0.741500
     26 OAY         -4.1650     9.7820    35.9660 o          1 Q5E      -0.741500
     27 H1          -6.1920     3.4410    29.0180 hc         1 Q5E       0.114700
     28 H2          -3.7180     3.0290    28.8980 hc         1 Q5E       0.114700
     29 H3          -5.5660     3.3010    33.4640 h1         1 Q5E       0.053700
     30 H4          -3.8150     3.1550    33.4260 h1         1 Q5E       0.053700
     31 H5          -5.2990     5.8310    33.5820 hc         1 Q5E       0.058200
     32 H6          -4.7680     4.9280    34.9970 hc         1 Q5E       0.058200
     33 H7          -2.3930     5.0690    34.2440 hc         1 Q5E       0.023700
     34 H8          -2.8770     5.9800    32.8260 hc         1 Q5E       0.023700
     35 H9          -3.2400     6.9050    35.7310 hc         1 Q5E       0.040700
     36 H10         -1.9360     7.3980    34.6600 hc         1 Q5E       0.040700
     37 H11         -3.5780     8.4050    33.1000 hc         1 Q5E       0.013700
     38 H12         -4.8980     7.9920    34.3100 hc         1 Q5E       0.013700
@<TRIPOS>BOND
     1     1     2 2   
     2     2     3 1   
     3     2    18 1   
     4     3     4 1   
     5     3    15 1   
     6     3    27 1   
     7     4     5 1   
     8     4     8 1   
     9     4     9 1   
    10     5     6 1   
    11     5     7 1   
    12     5    13 1   
    13     9    10 1   
    14     9    11 2   
    15    11    12 1   
    16    11    13 1   
    17    13    14 1   
    18    13    15 1   
    19    15    16 1   
    20    15    28 1   
    21    16    17 2   
    22    16    18 1   
    23    18    19 1   
    24    19    20 1   
    25    19    29 1   
    26    19    30 1   
    27    20    21 1   
    28    20    31 1   
    29    20    32 1   
    30    21    22 1   
    31    21    33 1   
    32    21    34 1   
    33    22    23 1   
    34    22    35 1   
    35    22    36 1   
    36    23    24 1   
    37    23    37 1   
    38    23    38 1   
    39    24    25 1   
    40    24    26 1   
@<TRIPOS>SUBSTRUCTURE
     1 Q5E         1 TEMP              0 ****  ****    0 ROOT
