@<TRIPOS>MOLECULE
Q5E
   38    40     1     0     0
SMALL
abcg2


@<TRIPOS>ATOM
      1 OAQ         -6.8170     4.5790    31.6810 o          1 Q5E      -0.471000
      2 CAO         -5.7890     4.3280    31.1100 c          1 Q5E       0.579000
      3 CAC         -5.5780     4.2860    29.6140 c5         1 Q5E      -0.165200
      4 CAD         -5.6730     5.6590    28.9070 c5         1 Q5E       0.173200
      5 CAJ         -4.7350     5.4190    27.6980 c5         1 Q5E       0.291000
      6 CL2         -5.2340     4.0860    26.6650 cl         1 Q5E      -0.176500
      7 CL1         -4.4930     6.8410    26.6970 cl         1 Q5E      -0.176500
      8 CL6         -7.2840     6.1950    28.5290 cl         1 Q5E      -0.151500
      9 CAE         -4.8200     6.6390    29.6910 c2         1 Q5E       0.040800
     10 CL5         -5.4530     7.8380    30.6910 cl         1 Q5E      -0.048500
     11 CAF         -3.5460     6.3110    29.4950 c2         1 Q5E       0.040800
     12 CL4         -2.1620     7.0290    30.1330 cl         1 Q5E      -0.048500
     13 CAA         -3.5260     5.0850    28.6070 c5         1 Q5E       0.173200
     14 CL3         -2.0230     4.7670    27.7910 cl         1 Q5E      -0.151500
     15 CAB         -4.1050     3.9050    29.4330 c5         1 Q5E      -0.165200
     16 CAN         -3.5600     3.7890    30.8410 c          1 Q5E       0.579000
     17 OAR         -2.4250     3.5350    31.1450 o          1 Q5E      -0.471000
     18 NAP         -4.6000     4.0030    31.7230 n          1 Q5E      -0.370400
     19 CAS         -4.4920     3.8390    33.1680 c3         1 Q5E       0.107000
     20 CAT         -4.3990     5.1440    33.9450 c3         1 Q5E      -0.091400
     21 CAU         -3.1350     5.9460    33.6700 c3         1 Q5E      -0.077400
     22 CAV         -2.9450     7.1440    34.5970 c3         1 Q5E      -0.054400
     23 CAW         -4.0180     8.2130    34.4560 c3         1 Q5E      -0.208400
     24 CAX         -3.8100     9.5030    35.2780 c          1 Q5E       0.717000
     25 OAZ         -2.7530     9.6190    35.9300 o          1 Q5E      -0.741500
     26 OAY         -4.7340    10.3410    35.2110 o          1 Q5E      -0.741500
     27 H1          -6.2670     3.5690    29.1680 hc         1 Q5E       0.114700
     28 H2          -3.9690     2.9590    28.9090 hc         1 Q5E       0.114700
     29 H3          -5.3620     3.2680    33.4930 h1         1 Q5E       0.053700
     30 H4          -3.6130     3.2220    33.3540 h1         1 Q5E       0.053700
     31 H5          -5.2890     5.7480    33.7550 hc         1 Q5E       0.058200
     32 H6          -4.4360     4.8750    35.0050 hc         1 Q5E       0.058200
     33 H7          -2.2680     5.2850    33.7630 hc         1 Q5E       0.023700
     34 H8          -3.1430     6.2990    32.6360 hc         1 Q5E       0.023700
     35 H9          -2.9020     6.7940    35.6340 hc         1 Q5E       0.040700
     36 H10         -1.9680     7.5870    34.3900 hc         1 Q5E       0.040700
     37 H11         -4.1040     8.4990    33.4010 hc         1 Q5E       0.013700
     38 H12         -5.0010     7.8060    34.7160 hc         1 Q5E       0.013700
@<TRIPOS>BOND
     1     1     2 2   
     2     2     3 1   
     3     2    18 1   
     4     3     4 1   
     5     3    15 1   
     6     3    27 1   
     7     4     5 1   
     8     4     8 1   
     9     4     9 1   
    10     5     6 1   
    11     5     7 1   
    12     5    13 1   
    13     9    10 1   
    14     9    11 2   
    15    11    12 1   
    16    11    13 1   
    17    13    14 1   
    18    13    15 1   
    19    15    16 1   
    20    15    28 1   
    21    16    17 2   
    22    16    18 1   
    23    18    19 1   
    24    19    20 1   
    25    19    29 1   
    26    19    30 1   
    27    20    21 1   
    28    20    31 1   
    29    20    32 1   
    30    21    22 1   
    31    21    33 1   
    32    21    34 1   
    33    22    23 1   
    34    22    35 1   
    35    22    36 1   
    36    23    24 1   
    37    23    37 1   
    38    23    38 1   
    39    24    25 1   
    40    24    26 1   
@<TRIPOS>SUBSTRUCTURE
     1 Q5E         1 TEMP              0 ****  ****    0 ROOT
