@<TRIPOS>MOLECULE
Q5F
   33    34     1     0     0
SMALL
No Charge or Current Charge


@<TRIPOS>ATOM
      1 C06          1.1280    -2.6880    -0.7800 c3         1 Q5F       0.109000
      2 C07         -0.1570    -2.3250    -0.0020 c3         1 Q5F       0.136600
      3 C08         -1.8900    -0.5630    -0.1380 ca         1 Q5F       0.145100
      4 C09         -2.3530     0.6100    -0.7770 ca         1 Q5F      -0.099300
      5 C10         -2.6020    -1.0890     0.9640 ca         1 Q5F      -0.186000
      6 C11         -3.5220     1.2440    -0.3090 ca         1 Q5F      -0.072000
      7 C12         -1.5960     1.1960    -1.9650 c3         1 Q5F      -0.034800
      8 C13          2.8640    -1.1910     0.2640 c          1 Q5F       0.645700
      9 C14         -3.7670    -0.4490     1.4220 ca         1 Q5F      -0.067000
     10 C15         -4.2250     0.7150     0.7860 ca         1 Q5F       0.087000
     11 C16          3.7040    -0.0090    -0.0040 cc         1 Q5F      -0.293600
     12 C17          4.5390     0.5680     0.9230 cd         1 Q5F      -0.062000
     13 C18          5.2350     1.6990     0.4170 cd         1 Q5F      -0.143000
     14 C19          4.9350     1.9900    -0.8910 cc         1 Q5F      -0.224000
     15 N05          2.1120    -1.5960    -0.8120 ns         1 Q5F      -0.500900
     16 O03         -0.7420    -1.1610    -0.6190 os         1 Q5F      -0.353100
     17 O04          2.8300    -1.7700     1.3400 o          1 Q5F      -0.599100
     18 S02          3.7620     0.8490    -1.5420 ss         1 Q5F       0.207000
     19 Cl1         -5.6820     1.5140     1.3610 cl         1 Q5F      -0.207000
     20 H1           1.5900    -3.5710    -0.3210 h1         1 Q5F       0.066200
     21 H2           0.8590    -2.9500    -1.8120 h1         1 Q5F       0.066200
     22 H3          -0.8510    -3.1750    -0.0360 h1         1 Q5F       0.050200
     23 H4           0.0960    -2.1230     1.0470 h1         1 Q5F       0.050200
     24 H5          -2.2710    -1.9890     1.4740 ha         1 Q5F       0.122000
     25 H6          -3.8880     2.1470    -0.7910 ha         1 Q5F       0.129000
     26 H7          -1.5510     0.4790    -2.7930 hc         1 Q5F       0.043367
     27 H8          -2.0720     2.1080    -2.3430 hc         1 Q5F       0.043367
     28 H9          -0.5670     1.4510    -1.6860 hc         1 Q5F       0.043367
     29 H10         -4.3150    -0.8540     2.2690 ha         1 Q5F       0.129000
     30 H11          4.6580     0.2010     1.9390 ha         1 Q5F       0.154000
     31 H12          5.9370     2.2790     1.0100 ha         1 Q5F       0.140000
     32 H13          5.3130     2.7850    -1.5210 h4         1 Q5F       0.153000
     33 H14          2.1950    -1.0480    -1.6570 hn         1 Q5F       0.322500
@<TRIPOS>BOND
     1     1     2 1   
     2     1    15 1   
     3     1    20 1   
     4     1    21 1   
     5     2    16 1   
     6     2    22 1   
     7     2    23 1   
     8     3     4 ar  
     9     3     5 ar  
    10     3    16 1   
    11     4     6 ar  
    12     4     7 1   
    13     5     9 ar  
    14     5    24 1   
    15     6    10 ar  
    16     6    25 1   
    17     7    26 1   
    18     7    27 1   
    19     7    28 1   
    20     8    11 1   
    21     8    15 1   
    22     8    17 2   
    23     9    10 ar  
    24     9    29 1   
    25    10    19 1   
    26    11    12 2   
    27    11    18 1   
    28    12    13 1   
    29    12    30 1   
    30    13    14 2   
    31    13    31 1   
    32    14    18 1   
    33    14    32 1   
    34    15    33 1   
@<TRIPOS>SUBSTRUCTURE
     1 Q5F         1 TEMP              0 ****  ****    0 ROOT
