@<TRIPOS>MOLECULE
Q5F
   33    34     1     0     0
SMALL
abcg2


@<TRIPOS>ATOM
      1 C06          1.0870    -2.7350    -0.6510 c3         1 Q5F       0.109000
      2 C07         -0.2120    -2.3700     0.0400 c3         1 Q5F       0.136600
      3 C08         -1.8510    -0.6510    -0.1780 ca         1 Q5F       0.145100
      4 C09         -2.1640     0.5750    -0.7870 ca         1 Q5F      -0.099300
      5 C10         -2.6280    -1.1360     0.8670 ca         1 Q5F      -0.186000
      6 C11         -3.2670     1.2780    -0.3290 ca         1 Q5F      -0.072000
      7 C12         -1.3080     1.1130    -1.8940 c3         1 Q5F      -0.034800
      8 C13          2.7790    -1.1960     0.2310 c          1 Q5F       0.645700
      9 C14         -3.7290    -0.4170     1.3170 ca         1 Q5F      -0.067000
     10 C15         -4.0410     0.7850     0.7140 ca         1 Q5F       0.087000
     11 C16          3.5300     0.0580     0.0000 cc         1 Q5F      -0.293600
     12 C17          4.5970     0.4810     0.7410 cd         1 Q5F      -0.062000
     13 C18          5.1090     1.7280     0.3070 cd         1 Q5F      -0.143000
     14 C19          4.4140     2.2370    -0.7500 cc         1 Q5F      -0.224000
     15 N05          1.9870    -1.6120    -0.7720 ns         1 Q5F      -0.500900
     16 O03         -0.7810    -1.2930    -0.6800 os         1 Q5F      -0.353100
     17 O04          2.8960    -1.8040     1.2860 o          1 Q5F      -0.599100
     18 S02          3.1390     1.2060    -1.2260 ss         1 Q5F       0.207000
     19 CL1         -5.4140     1.6980     1.2610 cl         1 Q5F      -0.207000
     20 H1           1.5610    -3.5440    -0.0970 h1         1 Q5F       0.066200
     21 H2           0.8870    -3.1070    -1.6560 h1         1 Q5F       0.066200
     22 H3          -0.8740    -3.2430     0.0450 h1         1 Q5F       0.050200
     23 H4          -0.0280    -2.0800     1.0790 h1         1 Q5F       0.050200
     24 H5          -2.3990    -2.0790     1.3450 ha         1 Q5F       0.122000
     25 H6          -3.5190     2.2270    -0.7870 ha         1 Q5F       0.129000
     26 H7          -1.2420     0.4180    -2.7320 hc         1 Q5F       0.043367
     27 H8          -1.7060     2.0550    -2.2690 hc         1 Q5F       0.043367
     28 H9          -0.2880     1.2960    -1.5520 hc         1 Q5F       0.043367
     29 H10         -4.3290    -0.8040     2.1290 ha         1 Q5F       0.129000
     30 H11          5.0040    -0.0870     1.5650 ha         1 Q5F       0.154000
     31 H12          5.9510     2.2280     0.7610 ha         1 Q5F       0.140000
     32 H13          4.5790     3.1690    -1.2680 h4         1 Q5F       0.153000
     33 H14          1.9670    -1.1080    -1.6430 hn         1 Q5F       0.322500
@<TRIPOS>BOND
     1     1     2 1   
     2     1    15 1   
     3     1    20 1   
     4     1    21 1   
     5     2    16 1   
     6     2    22 1   
     7     2    23 1   
     8     3     4 ar  
     9     3     5 ar  
    10     3    16 1   
    11     4     6 ar  
    12     4     7 1   
    13     5     9 ar  
    14     5    24 1   
    15     6    10 ar  
    16     6    25 1   
    17     7    26 1   
    18     7    27 1   
    19     7    28 1   
    20     8    11 1   
    21     8    15 1   
    22     8    17 2   
    23     9    10 ar  
    24     9    29 1   
    25    10    19 1   
    26    11    12 2   
    27    11    18 1   
    28    12    13 1   
    29    12    30 1   
    30    13    14 2   
    31    13    31 1   
    32    14    18 1   
    33    14    32 1   
    34    15    33 1   
@<TRIPOS>SUBSTRUCTURE
     1 Q5F         1 TEMP              0 ****  ****    0 ROOT
