@<TRIPOS>MOLECULE
Q5G
   37    38     1     0     0
SMALL
bcc


@<TRIPOS>ATOM
      1 C20          6.3800    -0.6580     0.1640 c          1 Q5G       0.934600
      2 C01         -3.9270     3.1490    -0.2680 ca         1 Q5G      -0.153000
      3 C02         -4.9650     2.4010     0.2740 ca         1 Q5G      -0.114000
      4 C03         -4.7770     1.0620     0.5710 ca         1 Q5G      -0.147000
      5 C04         -3.5410     0.4660     0.3460 ca         1 Q5G       0.111100
      6 C05         -2.4870     1.2180    -0.1800 ca         1 Q5G      -0.017400
      7 C06         -2.6980     2.5550    -0.5040 ca         1 Q5G      -0.082000
      8 N07         -1.2710     0.5420    -0.4280 n          1 Q5G      -0.391000
      9 C08         -1.4760    -0.8520    -0.7650 c6         1 Q5G       0.069000
     10 C09         -2.2210    -1.5150     0.3880 c6         1 Q5G       0.040100
     11 O10         -3.4310    -0.8450     0.6560 os         1 Q5G      -0.297900
     12 C11         -2.5760    -2.9540     0.0210 c          1 Q5G       0.672100
     13 O12         -3.6010    -3.2190    -0.5790 o          1 Q5G      -0.577100
     14 N13         -1.6390    -3.8450     0.3590 nt         1 Q5G      -0.675000
     15 C14         -0.0670     1.0710    -0.0570 c          1 Q5G       0.686100
     16 O15          0.0360     2.1910     0.4010 o          1 Q5G      -0.541100
     17 C16          1.1510     0.1940    -0.2550 c3         1 Q5G      -0.088300
     18 S17          2.6300     1.1420     0.1700 ss         1 Q5G      -0.333200
     19 C18          3.8660    -0.1720    -0.0630 c3         1 Q5G       0.058700
     20 C19          5.2360     0.3680     0.2980 c3         1 Q5G      -0.210400
     21 O21          6.0720    -1.8290    -0.1290 o          1 Q5G      -0.837800
     22 O22          7.5280    -0.2170     0.3700 o          1 Q5G      -0.837800
     23 H3          -5.5830     0.4670     0.9810 ha         1 Q5G       0.144000
     24 H4          -1.9020     3.1310    -0.9520 ha         1 Q5G       0.154000
     25 H5          -2.0600    -0.9160    -1.6860 h1         1 Q5G       0.077200
     26 H6          -0.5350    -1.3630    -0.9460 h1         1 Q5G       0.077200
     27 H7          -1.5830    -1.4930     1.2800 h1         1 Q5G       0.065700
     28 H8          -0.8350    -3.5970     0.9100 hn         1 Q5G       0.319500
     29 H9          -1.7380    -4.8150     0.1040 hn         1 Q5G       0.319500
     30 H10          1.0910    -0.6900     0.3870 h1         1 Q5G       0.068200
     31 H11          1.2130    -0.1600    -1.2870 h1         1 Q5G       0.068200
     32 H12          3.6020    -1.0200     0.5710 h1         1 Q5G       0.054700
     33 H13          3.8410    -0.5110    -1.1000 h1         1 Q5G       0.054700
     34 H14          5.2290     0.7400     1.3290 hc         1 Q5G       0.036200
     35 H15          5.4760     1.2360    -0.3240 hc         1 Q5G       0.036200
     36 H1          -4.0760     4.1900    -0.5190 ha         1 Q5G       0.132000
     37 H2          -5.9290     2.8560     0.4590 ha         1 Q5G       0.127000
@<TRIPOS>BOND
     1     1    20 1   
     2     1    21 1   
     3     1    22 1   
     4     2     3 ar  
     5     2     7 ar  
     6     2    36 1   
     7     3     4 ar  
     8     3    37 1   
     9     4     5 ar  
    10     4    23 1   
    11     5     6 ar  
    12     5    11 1   
    13     6     7 ar  
    14     6     8 1   
    15     7    24 1   
    16     8     9 1   
    17     8    15 1   
    18     9    10 1   
    19     9    25 1   
    20     9    26 1   
    21    10    11 1   
    22    10    12 1   
    23    10    27 1   
    24    12    13 2   
    25    12    14 1   
    26    14    28 1   
    27    14    29 1   
    28    15    16 2   
    29    15    17 1   
    30    17    18 1   
    31    17    30 1   
    32    17    31 1   
    33    18    19 1   
    34    19    20 1   
    35    19    32 1   
    36    19    33 1   
    37    20    34 1   
    38    20    35 1   
@<TRIPOS>SUBSTRUCTURE
     1 Q5G         1 TEMP              0 ****  ****    0 ROOT
