@<TRIPOS>MOLECULE
Q5G
   37    38     1     0     0
SMALL
No Charge or Current Charge


@<TRIPOS>ATOM
      1 C20          6.5040    -0.3640    -0.3760 c          1 Q5G       0.724000
      2 C01         -3.6450     3.2910    -0.2160 ca         1 Q5G      -0.135000
      3 C02         -4.8860     2.6410    -0.2690 ca         1 Q5G      -0.096000
      4 C03         -4.9390     1.2400    -0.2170 ca         1 Q5G      -0.129000
      5 C04         -3.7560     0.4890    -0.1120 ca         1 Q5G       0.111100
      6 C05         -2.4900     1.1300    -0.0980 ca         1 Q5G      -0.110000
      7 C06         -2.4570     2.5450    -0.1210 ca         1 Q5G      -0.064000
      8 N07         -1.2830     0.3420     0.0890 n          1 Q5G      -0.231400
      9 C08         -1.4000    -1.0960    -0.2740 c6         1 Q5G       0.069000
     10 C09         -2.7190    -1.6890     0.2800 c6         1 Q5G       0.063300
     11 O10         -3.8690    -0.8840    -0.0820 os         1 Q5G      -0.321100
     12 C11         -2.9390    -3.2050    -0.0150 c          1 Q5G       0.605100
     13 O12         -4.0400    -3.6890    -0.2350 o          1 Q5G      -0.577100
     14 N13         -1.8530    -4.0170    -0.0170 nt         1 Q5G      -0.608000
     15 C14         -0.0950     0.8240     0.7160 c          1 Q5G       0.619100
     16 O15         -0.1150     1.7870     1.4760 o          1 Q5G      -0.541100
     17 C16          1.2440     0.1260     0.3550 c3         1 Q5G      -0.040400
     18 S17          2.7610     1.2010     0.5250 ss         1 Q5G      -0.429000
     19 C18          4.0640    -0.0040     0.0060 c3         1 Q5G       0.106600
     20 C19          5.4520     0.6580     0.0590 c3         1 Q5G      -0.210400
     21 O21          6.9920    -1.0870     0.4790 o          1 Q5G      -0.732500
     22 O22          6.7670    -0.4480    -1.5660 o          1 Q5G      -0.732500
     23 H3          -5.8990     0.7320    -0.2530 ha         1 Q5G       0.126000
     24 H4          -1.5130     3.0830    -0.0990 ha         1 Q5G       0.136000
     25 H5          -1.3800    -1.1960    -1.3690 h1         1 Q5G       0.077200
     26 H6          -0.5560    -1.6690     0.1310 h1         1 Q5G       0.077200
     27 H7          -2.6360    -1.6390     1.3750 h1         1 Q5G       0.065700
     28 H8          -0.9330    -3.6570     0.1880 hn         1 Q5G       0.319500
     29 H9          -1.9820    -5.0020    -0.2020 hn         1 Q5G       0.319500
     30 H10          1.3490    -0.7550     1.0010 h1         1 Q5G       0.068200
     31 H11          1.1790    -0.2150    -0.6860 h1         1 Q5G       0.068200
     32 H12          4.0390    -0.8730     0.6760 h1         1 Q5G       0.054700
     33 H13          3.8520    -0.3450    -1.0160 h1         1 Q5G       0.054700
     34 H14          5.6060     0.9540     1.1040 hc         1 Q5G       0.036200
     35 H15          5.4140     1.4990    -0.6430 hc         1 Q5G       0.036200
     36 H1          -3.6000     4.3770    -0.2520 ha         1 Q5G       0.114000
     37 H2          -5.8040     3.2200    -0.3460 ha         1 Q5G       0.109000
@<TRIPOS>BOND
     1     1    20 1   
     2     1    21 1   
     3     1    22 1   
     4     2     3 ar  
     5     2     7 ar  
     6     2    36 1   
     7     3     4 ar  
     8     3    37 1   
     9     4     5 ar  
    10     4    23 1   
    11     5     6 ar  
    12     5    11 1   
    13     6     7 ar  
    14     6     8 1   
    15     7    24 1   
    16     8     9 1   
    17     8    15 1   
    18     9    10 1   
    19     9    25 1   
    20     9    26 1   
    21    10    11 1   
    22    10    12 1   
    23    10    27 1   
    24    12    13 2   
    25    12    14 1   
    26    14    28 1   
    27    14    29 1   
    28    15    16 2   
    29    15    17 1   
    30    17    18 1   
    31    17    30 1   
    32    17    31 1   
    33    18    19 1   
    34    19    20 1   
    35    19    32 1   
    36    19    33 1   
    37    20    34 1   
    38    20    35 1   
@<TRIPOS>SUBSTRUCTURE
     1 Q5G         1 TEMP              0 ****  ****    0 ROOT
