@<TRIPOS>MOLECULE
Q5H
   24    24     1     0     0
SMALL
No Charge or Current Charge


@<TRIPOS>ATOM
      1 C4         -20.1940    -9.3800    12.4550 ca         1 Q5H      -0.130000
      2 C5         -20.3460    -9.6750    13.8160 ca         1 Q5H      -0.097000
      3 C6         -21.5750   -10.1530    14.3170 ca         1 Q5H      -0.098600
      4 C7         -21.6790   -10.4490    15.7960 c          1 Q5H       0.704600
      5 C8         -22.6740   -10.3330    13.4320 ca         1 Q5H      -0.035300
      6 C          -25.3600   -11.1210     9.7140 c3         1 Q5H      -0.178100
      7 O          -24.2040   -12.4300    11.3750 o          1 Q5H      -0.590100
      8 C1         -24.3200   -11.3480    10.8090 c          1 Q5H       0.590100
      9 C2         -22.4960   -10.0690    12.0440 ca         1 Q5H      -0.078000
     10 C3         -21.2660    -9.5760    11.5760 ca         1 Q5H      -0.161000
     11 C9         -24.0420   -10.7400    13.9920 c3         1 Q5H      -0.033800
     12 O1         -21.4010    -9.5540    16.5820 o          1 Q5H      -0.716500
     13 O2         -21.9680   -11.5860    16.1450 o          1 Q5H      -0.716500
     14 H5         -19.2430    -9.0070    12.0820 ha         1 Q5H       0.087000
     15 H6         -19.5060    -9.5300    14.4920 ha         1 Q5H       0.115000
     16 H3         -23.6850    -9.4440    10.4840 hn         1 Q5H       0.132000
     17 H2         -25.9660   -12.0110     9.5120 hc         1 Q5H       0.050033
     18 H          -25.9830   -10.2610     9.9870 hc         1 Q5H       0.050033
     19 H1         -24.8550   -10.7620     8.8100 hc         1 Q5H       0.050033
     20 H4         -21.1350    -9.3540    10.5190 ha         1 Q5H       0.084000
     21 H10        -24.8700   -10.3920    13.3650 hc         1 Q5H       0.041700
     22 H9         -24.1220   -11.8290    14.0860 hc         1 Q5H       0.041700
     23 H8         -24.2180   -10.3080    14.9840 hc         1 Q5H       0.041700
     24 N          -23.5230   -10.2460    11.0790 ns         1 Q5H      -0.156000
@<TRIPOS>BOND
     1     1     2 ar  
     2     1    10 ar  
     3     1    14 1   
     4     2     3 ar  
     5     2    15 1   
     6     3     4 1   
     7     3     5 ar  
     8     4    12 1   
     9     4    13 1   
    10     5     9 ar  
    11     5    11 1   
    12     6     8 1   
    13     6    17 1   
    14     6    18 1   
    15     6    19 1   
    16     7     8 2   
    17     8    24 1   
    18     9    10 ar  
    19     9    24 1   
    20    10    20 1   
    21    11    21 1   
    22    11    22 1   
    23    11    23 1   
    24    16    24 1   
@<TRIPOS>SUBSTRUCTURE
     1 Q5H         1 TEMP              0 ****  ****    0 ROOT
