@<TRIPOS>MOLECULE
Q5H
   24    24     1     0     0
SMALL
abcg2


@<TRIPOS>ATOM
      1 C4         -20.1600    -9.5500    12.4240 ca         1 Q5H      -0.130000
      2 C5         -20.3440    -9.7790    13.7820 ca         1 Q5H      -0.097000
      3 C6         -21.5910   -10.1500    14.2800 ca         1 Q5H      -0.098600
      4 C7         -21.7310   -10.4090    15.7740 c          1 Q5H       0.704600
      5 C8         -22.6930   -10.2770    13.4190 ca         1 Q5H      -0.035300
      6 C          -25.3350   -11.1230     9.7920 c3         1 Q5H      -0.178100
      7 O          -24.0060   -12.3490    11.3650 o          1 Q5H      -0.590100
      8 C1         -24.2420   -11.2710    10.8240 c          1 Q5H       0.590100
      9 C2         -22.4860   -10.0490    12.0510 ca         1 Q5H      -0.078000
     10 C3         -21.2340    -9.6900    11.5570 ca         1 Q5H      -0.161000
     11 C9         -24.0600   -10.5980    13.9560 c3         1 Q5H      -0.033800
     12 O1         -21.5640    -9.4230    16.5340 o          1 Q5H      -0.716500
     13 O2         -21.9830   -11.5900    16.1180 o          1 Q5H      -0.716500
     14 H5         -19.1860    -9.2690    12.0420 ha         1 Q5H       0.087000
     15 H6         -19.5130    -9.6660    14.4670 ha         1 Q5H       0.115000
     16 H3         -23.7200    -9.3320    10.5310 hn         1 Q5H       0.132000
     17 H2         -25.2530   -11.9340     9.0690 hc         1 Q5H       0.050033
     18 H          -26.2980   -11.2210    10.2970 hc         1 Q5H       0.050033
     19 H1         -25.3080   -10.1650     9.2740 hc         1 Q5H       0.050033
     20 H4         -21.1140    -9.5250    10.4940 ha         1 Q5H       0.084000
     21 H10        -24.8360   -10.1580    13.3290 hc         1 Q5H       0.041700
     22 H9         -24.2310   -11.6750    13.9790 hc         1 Q5H       0.041700
     23 H8         -24.1780   -10.2200    14.9700 hc         1 Q5H       0.041700
     24 N          -23.5640   -10.1340    11.1230 ns         1 Q5H      -0.156000
@<TRIPOS>BOND
     1     1     2 ar  
     2     1    10 ar  
     3     1    14 1   
     4     2     3 ar  
     5     2    15 1   
     6     3     4 1   
     7     3     5 ar  
     8     4    12 1   
     9     4    13 1   
    10     5     9 ar  
    11     5    11 1   
    12     6     8 1   
    13     6    17 1   
    14     6    18 1   
    15     6    19 1   
    16     7     8 2   
    17     8    24 1   
    18     9    10 ar  
    19     9    24 1   
    20    10    20 1   
    21    11    21 1   
    22    11    22 1   
    23    11    23 1   
    24    16    24 1   
@<TRIPOS>SUBSTRUCTURE
     1 Q5H         1 TEMP              0 ****  ****    0 ROOT
