@<TRIPOS>MOLECULE
Q5J
   40    42     1     0     0
SMALL
No Charge or Current Charge


@<TRIPOS>ATOM
      1 C1          -1.5920    -0.0290     2.0240 ca         1 Q5J      -0.131000
      2 C2          -0.6290     0.7630     1.3570 ca         1 Q5J      -0.042000
      3 C3          -0.8290     1.1830     0.0210 ca         1 Q5J       0.209000
      4 O1           1.7450     2.9820     0.9100 o          1 Q5J      -0.526500
      5 O2           2.1920     2.8380    -1.6140 o          1 Q5J      -0.526500
      6 C11          2.4720     0.6160    -0.1570 ca         1 Q5J      -0.318500
      7 C12          2.9320     0.1850     1.1050 ca         1 Q5J      -0.020500
      8 C13          3.4980    -1.0930     1.2470 ca         1 Q5J      -0.125000
      9 C14          3.6140    -1.9530     0.1380 ca         1 Q5J      -0.031300
     10 C15          3.1540    -1.5180    -1.1210 ca         1 Q5J      -0.125000
     11 C16          2.5860    -0.2410    -1.2700 ca         1 Q5J      -0.020500
     12 C17          4.2380    -3.3360     0.2960 c3         1 Q5J       0.187100
     13 C10         -3.7470     0.4680    -2.0900 cc         1 Q5J      -0.110100
     14 C4          -2.0330     0.7880    -0.5970 ca         1 Q5J      -0.070200
     15 C5          -2.9680     0.0170     0.0500 ca         1 Q5J      -0.059800
     16 C6          -2.7830    -0.4200     1.3770 ca         1 Q5J      -0.012300
     17 C7          -3.8080    -1.2740     2.1120 c3         1 Q5J      -0.052800
     18 C8          -4.0510    -0.1840    -0.9010 cd         1 Q5J      -0.057900
     19 C9          -5.2600    -0.9140    -0.7240 ch         1 Q5J       0.322700
     20 N1          -6.2600    -1.5060    -0.6060 n1         1 Q5J      -0.471000
     21 N2          -2.4910     1.0680    -1.8790 na         1 Q5J      -0.203700
     22 N3           0.1090     1.9570    -0.6760 nu         1 Q5J      -0.879100
     23 N4           3.2570    -4.3350     0.7690 n8         1 Q5J      -0.997200
     24 S1           1.7350     2.2450    -0.3570 sy         1 Q5J       1.150600
     25 H1          -1.4040    -0.3360     3.0510 ha         1 Q5J       0.123000
     26 H2           0.2700     1.0460     1.8940 ha         1 Q5J       0.141000
     27 H3           2.8550     0.8330     1.9770 ha         1 Q5J       0.139000
     28 H4           3.8490    -1.4190     2.2240 ha         1 Q5J       0.130500
     29 H5           3.2360    -2.1710    -1.9870 ha         1 Q5J       0.130500
     30 H6           2.2340     0.0780    -2.2510 ha         1 Q5J       0.139000
     31 H7           4.6480    -3.6690    -0.6680 h1         1 Q5J       0.042200
     32 H8           5.0680    -3.2850     1.0160 h1         1 Q5J       0.042200
     33 H9          -4.3010     0.5510    -3.0210 h4         1 Q5J       0.224000
     34 H10         -4.7700    -0.7550     2.1890 hc         1 Q5J       0.051700
     35 H11         -3.9730    -2.2250     1.5930 hc         1 Q5J       0.051700
     36 H12         -3.4820    -1.5100     3.1320 hc         1 Q5J       0.051700
     37 H13         -2.0040     1.6390    -2.5620 hn         1 Q5J       0.354000
     38 H14         -0.0080     2.0820    -1.6700 hn         1 Q5J       0.487000
     39 H15          2.5130    -4.4230     0.0670 hn         1 Q5J       0.402500
     40 H16          3.7000    -5.2630     0.7720 hn         1 Q5J       0.402500
@<TRIPOS>BOND
     1     1     2 ar  
     2     1    16 ar  
     3     1    25 1   
     4     2     3 ar  
     5     2    26 1   
     6     3    14 ar  
     7     3    22 1   
     8     4    24 2   
     9     5    24 2   
    10     6     7 ar  
    11     6    11 ar  
    12     6    24 1   
    13     7     8 ar  
    14     7    27 1   
    15     8     9 ar  
    16     8    28 1   
    17     9    10 ar  
    18     9    12 1   
    19    10    11 ar  
    20    10    29 1   
    21    11    30 1   
    22    12    23 1   
    23    12    31 1   
    24    12    32 1   
    25    13    18 2   
    26    13    21 1   
    27    13    33 1   
    28    14    15 ar  
    29    14    21 1   
    30    15    16 ar  
    31    15    18 1   
    32    16    17 1   
    33    17    34 1   
    34    17    35 1   
    35    17    36 1   
    36    18    19 1   
    37    19    20 3   
    38    21    37 1   
    39    22    24 1   
    40    22    38 1   
    41    23    39 1   
    42    23    40 1   
@<TRIPOS>SUBSTRUCTURE
     1 Q5J         1 TEMP              0 ****  ****    0 ROOT
