@<TRIPOS>MOLECULE
Q5J
   40    42     1     0     0
SMALL
bcc


@<TRIPOS>ATOM
      1 C1          -2.2960     1.4260     2.1020 ca         1 Q5J      -0.149000
      2 C2          -1.3300     2.2160     1.4680 ca         1 Q5J      -0.060000
      3 C3          -0.7060     1.7940     0.3120 ca         1 Q5J       0.070600
      4 O1           1.8370     2.6210     1.6940 o          1 Q5J      -0.597300
      5 O2           2.6860     3.2360    -0.5980 o          1 Q5J      -0.597300
      6 C11          2.2530     0.7010    -0.0250 ca         1 Q5J      -0.318500
      7 C12          1.9070    -0.2440     0.9310 ca         1 Q5J      -0.038500
      8 C13          2.0530    -1.5900     0.6370 ca         1 Q5J      -0.143000
      9 C14          2.5450    -2.0000    -0.5990 ca         1 Q5J      -0.031300
     10 C15          2.9040    -1.0310    -1.5360 ca         1 Q5J      -0.143000
     11 C16          2.7620     0.3170    -1.2610 ca         1 Q5J      -0.038500
     12 C17          2.7120    -3.4590    -0.9370 c3         1 Q5J       0.187100
     13 C10         -1.2720    -1.3140    -1.4020 cc         1 Q5J      -0.060100
     14 C4          -1.0890     0.5470    -0.1950 ca         1 Q5J      -0.070200
     15 C5          -2.0600    -0.2500     0.4360 ca         1 Q5J      -0.059800
     16 C6          -2.6820     0.1890     1.6150 ca         1 Q5J      -0.012300
     17 C7          -3.7120    -0.6420     2.3150 c3         1 Q5J      -0.052800
     18 C8          -2.1590    -1.4450    -0.3590 cd         1 Q5J      -0.057900
     19 C9          -2.9870    -2.5670    -0.1600 ch         1 Q5J       0.233500
     20 N1          -3.6550    -3.4960    -0.0020 n1         1 Q5J      -0.381800
     21 N2          -0.6440    -0.1280    -1.3000 na         1 Q5J      -0.153400
     22 N3           0.3050     2.5800    -0.2920 nu         1 Q5J      -0.685500
     23 N4           1.8600    -4.3130    -0.1350 n8         1 Q5J      -0.886800
     24 S1           1.8700     2.3980     0.2620 sy         1 Q5J       1.292200
     25 H1          -2.7570     1.8000     3.0080 ha         1 Q5J       0.141000
     26 H2          -1.0650     3.1770     1.8860 ha         1 Q5J       0.159000
     27 H3           1.5140     0.0580     1.8930 ha         1 Q5J       0.157000
     28 H4           1.7720    -2.3310     1.3720 ha         1 Q5J       0.148500
     29 H5           3.2910    -1.3360    -2.5010 ha         1 Q5J       0.148500
     30 H6           3.0310     1.0530    -2.0080 ha         1 Q5J       0.157000
     31 H7           2.5780    -3.5770    -2.0200 h1         1 Q5J       0.042200
     32 H8           3.7520    -3.7340    -0.7370 h1         1 Q5J       0.042200
     33 H9          -1.0600    -1.9960    -2.2090 h4         1 Q5J       0.174000
     34 H10         -4.5870    -0.8120     1.6840 hc         1 Q5J       0.051700
     35 H11         -3.3170    -1.6230     2.5860 hc         1 Q5J       0.051700
     36 H12         -4.0490    -0.1560     3.2280 hc         1 Q5J       0.051700
     37 H13          0.0580     0.1900    -1.9490 hn         1 Q5J       0.303700
     38 H14          0.2550     2.7030    -1.2980 hn         1 Q5J       0.431800
     39 H15          0.8950    -4.2050    -0.4230 hn         1 Q5J       0.347300
     40 H16          2.0960    -5.2810    -0.3120 hn         1 Q5J       0.347300
@<TRIPOS>BOND
     1     1     2 ar  
     2     1    16 ar  
     3     1    25 1   
     4     2     3 ar  
     5     2    26 1   
     6     3    14 ar  
     7     3    22 1   
     8     4    24 2   
     9     5    24 2   
    10     6     7 ar  
    11     6    11 ar  
    12     6    24 1   
    13     7     8 ar  
    14     7    27 1   
    15     8     9 ar  
    16     8    28 1   
    17     9    10 ar  
    18     9    12 1   
    19    10    11 ar  
    20    10    29 1   
    21    11    30 1   
    22    12    23 1   
    23    12    31 1   
    24    12    32 1   
    25    13    18 2   
    26    13    21 1   
    27    13    33 1   
    28    14    15 ar  
    29    14    21 1   
    30    15    16 ar  
    31    15    18 1   
    32    16    17 1   
    33    17    34 1   
    34    17    35 1   
    35    17    36 1   
    36    18    19 1   
    37    19    20 3   
    38    21    37 1   
    39    22    24 1   
    40    22    38 1   
    41    23    39 1   
    42    23    40 1   
@<TRIPOS>SUBSTRUCTURE
     1 Q5J         1 TEMP              0 ****  ****    0 ROOT
