@<TRIPOS>MOLECULE
Q5K
   44    46     1     0     0
SMALL
abcg2


@<TRIPOS>ATOM
      1 N1           9.1530     1.7040    25.2510 nu         1 Q5K      -0.911100
      2 C4           9.5570     5.3490    23.1890 ca         1 Q5K      -0.082000
      3 C5           9.7840     5.2850    24.5590 ca         1 Q5K      -0.119000
      4 C6           9.6230     4.0760    25.2200 ca         1 Q5K      -0.056000
      5 C7           9.2670     2.9260    24.5220 ca         1 Q5K       0.205000
      6 C8          11.1110     0.1330    24.1250 ca         1 Q5K      -0.339500
      7 C10         12.3210     0.4340    22.0720 ca         1 Q5K      -0.177500
      8 C13         10.7800    -1.1720    23.7700 ca         1 Q5K       0.010500
      9 C15          6.0480     0.8930    20.1440 ca         1 Q5K      -0.041000
     10 C17          5.3580     0.9780    17.8580 ca         1 Q5K       0.346900
     11 C11         11.9810    -0.8650    21.7340 ca         1 Q5K       0.216000
     12 C9          11.8830     0.9370    23.2880 ca         1 Q5K       0.010500
     13 C12         11.2250    -1.6840    22.5580 ca         1 Q5K      -0.177500
     14 S           10.4880     0.8090    25.6350 sy         1 Q5K       1.192600
     15 O2          11.4750     1.7220    26.1510 o          1 Q5K      -0.534500
     16 O3          10.0000    -0.2740    26.4510 o          1 Q5K      -0.534500
     17 C3           9.1790     4.2160    22.4830 ca         1 Q5K      -0.115000
     18 C2           9.0440     2.9890    23.1360 ca         1 Q5K      -0.045000
     19 N            8.6700     1.8310    22.4320 ns         1 Q5K      -0.154000
     20 C1           9.0000     1.5130    21.1580 c          1 Q5K       0.572100
     21 O1           9.6790     2.1950    20.4040 o          1 Q5K      -0.567100
     22 C            8.4150     0.1730    20.6720 c3         1 Q5K       0.144600
     23 O            7.9190    -0.6310    21.7380 oh         1 Q5K      -0.661000
     24 C14          7.2940     0.4530    19.7040 ca         1 Q5K      -0.147300
     25 C18          7.4880     0.3010    18.3350 ca         1 Q5K       0.362900
     26 N2           6.5480     0.5580    17.4210 nb         1 Q5K      -0.661000
     27 C16          5.0620     1.1550    19.2060 ca         1 Q5K      -0.167000
     28 H1           8.3400     1.1200    25.0950 hn         1 Q5K       0.490000
     29 H2           9.6620     6.2900    22.6630 ha         1 Q5K       0.123000
     30 H3          10.0700     6.1700    25.1120 ha         1 Q5K       0.126000
     31 H4           9.7790     4.0000    26.2870 ha         1 Q5K       0.141000
     32 H5          12.9150     1.0330    21.3960 ha         1 Q5K       0.145500
     33 H6          10.1870    -1.7830    24.4340 ha         1 Q5K       0.145000
     34 H7           5.8540     1.0250    21.2010 ha         1 Q5K       0.125000
     35 H8           4.6080     1.1800    17.1010 h4         1 Q5K       0.023100
     36 H9          12.1390     1.9450    23.5800 ha         1 Q5K       0.145000
     37 H10         10.9960    -2.6970    22.2560 ha         1 Q5K       0.145500
     38 H11          8.9930     4.2710    21.4230 ha         1 Q5K       0.144000
     39 H12          8.1600     1.1060    22.9200 hn         1 Q5K       0.163000
     40 H13          9.2270    -0.3350    20.1480 h1         1 Q5K       0.074700
     41 H14          8.6600    -1.1110    22.1330 ho         1 Q5K       0.453000
     42 H15          8.4470    -0.0460    17.9620 h4         1 Q5K       0.024100
     43 H16          4.0800     1.4950    19.5070 ha         1 Q5K       0.127000
     44 F           12.4080    -1.3560    20.5530 f          1 Q5K      -0.168000
@<TRIPOS>BOND
     1     1     5 1   
     2     1    14 1   
     3     1    28 1   
     4     2     3 ar  
     5     2    17 ar  
     6     2    29 1   
     7     3     4 ar  
     8     3    30 1   
     9     4     5 ar  
    10     4    31 1   
    11     5    18 ar  
    12     6     8 ar  
    13     6    12 ar  
    14     6    14 1   
    15     7    11 ar  
    16     7    12 ar  
    17     7    32 1   
    18     8    13 ar  
    19     8    33 1   
    20     9    24 ar  
    21     9    27 ar  
    22     9    34 1   
    23    10    26 ar  
    24    10    27 ar  
    25    10    35 1   
    26    11    13 ar  
    27    11    44 1   
    28    12    36 1   
    29    13    37 1   
    30    14    15 2   
    31    14    16 2   
    32    17    18 ar  
    33    17    38 1   
    34    18    19 1   
    35    19    20 1   
    36    19    39 1   
    37    20    21 2   
    38    20    22 1   
    39    22    23 1   
    40    22    24 1   
    41    22    40 1   
    42    23    41 1   
    43    24    25 ar  
    44    25    26 ar  
    45    25    42 1   
    46    27    43 1   
@<TRIPOS>SUBSTRUCTURE
     1 Q5K         1 TEMP              0 ****  ****    0 ROOT
