@<TRIPOS>MOLECULE
Q5K
   44    46     1     0     0
SMALL
No Charge or Current Charge


@<TRIPOS>ATOM
      1 N1           8.8110     1.7640    24.9310 nu         1 Q5K      -0.911100
      2 C4           9.9540     5.2740    22.8890 ca         1 Q5K      -0.082000
      3 C5           9.9430     5.2360    24.2900 ca         1 Q5K      -0.119000
      4 C6           9.5520     4.0630    24.9540 ca         1 Q5K      -0.056000
      5 C7           9.1690     2.9190    24.2290 ca         1 Q5K       0.205000
      6 C8          10.9380     0.1530    24.3290 ca         1 Q5K      -0.339500
      7 C10         12.7170     0.5950    22.7260 ca         1 Q5K      -0.177500
      8 C13         10.7660    -1.1370    23.7840 ca         1 Q5K       0.010500
      9 C15          5.9600     0.5860    20.4430 ca         1 Q5K      -0.041000
     10 C17          4.7900     1.1660    18.4020 ca         1 Q5K       0.346900
     11 C11         12.5420    -0.6870    22.1860 ca         1 Q5K       0.216000
     12 C9          11.9190     1.0180    23.8010 ca         1 Q5K       0.010500
     13 C12         11.5730    -1.5530    22.7110 ca         1 Q5K      -0.177500
     14 S            9.8930     0.7170    25.6740 sy         1 Q5K       1.192600
     15 O2          10.6550     1.5770    26.5820 o          1 Q5K      -0.534500
     16 O3           9.0380    -0.3730    26.1460 o          1 Q5K      -0.534500
     17 C3           9.5790     4.1370    22.1530 ca         1 Q5K      -0.115000
     18 C2           9.1890     2.9490    22.8110 ca         1 Q5K      -0.045000
     19 N            8.8220     1.7920    22.0650 ns         1 Q5K      -0.154000
     20 C1           9.2140     1.3600    20.8050 c          1 Q5K       0.572100
     21 O1          10.0720     1.9210    20.1300 o          1 Q5K      -0.567100
     22 C            8.4740     0.0800    20.3050 c3         1 Q5K       0.144600
     23 O            8.2800    -0.9090    21.3480 oh         1 Q5K      -0.661000
     24 C14          7.1330     0.4500    19.6740 ca         1 Q5K      -0.147300
     25 C18          7.0560     0.6930    18.2880 ca         1 Q5K       0.362900
     26 N2           5.9110     1.0430    17.6550 nb         1 Q5K      -0.661000
     27 C16          4.7720     0.9490    19.7890 ca         1 Q5K      -0.167000
     28 H1           8.2040     1.1230    24.4430 hn         1 Q5K       0.490000
     29 H2          10.2510     6.1830    22.3710 ha         1 Q5K       0.123000
     30 H3          10.2330     6.1150    24.8620 ha         1 Q5K       0.126000
     31 H4           9.5410     4.0390    26.0410 ha         1 Q5K       0.141000
     32 H5          13.4700     1.2590    22.3100 ha         1 Q5K       0.145500
     33 H6          10.0140    -1.8180    24.1850 ha         1 Q5K       0.145000
     34 H7           5.9650     0.4150    21.5180 ha         1 Q5K       0.125000
     35 H8           3.8810     1.4480    17.8720 h4         1 Q5K       0.023100
     36 H9          12.0570     2.0180    24.2130 ha         1 Q5K       0.145000
     37 H10         11.4530    -2.5480    22.2900 ha         1 Q5K       0.145500
     38 H11          9.5840     4.1970    21.0680 ha         1 Q5K       0.144000
     39 H12          8.1390     1.1950    22.5110 hn         1 Q5K       0.163000
     40 H13          9.1130    -0.3470    19.5190 h1         1 Q5K       0.074700
     41 H14          9.1500    -1.3320    21.5220 ho         1 Q5K       0.453000
     42 H15          7.9410     0.6070    17.6590 h4         1 Q5K       0.024100
     43 H16          3.8450     1.0630    20.3450 ha         1 Q5K       0.127000
     44 F           13.3130    -1.0910    21.1530 f          1 Q5K      -0.168000
@<TRIPOS>BOND
     1     1     5 1   
     2     1    14 1   
     3     1    28 1   
     4     2     3 ar  
     5     2    17 ar  
     6     2    29 1   
     7     3     4 ar  
     8     3    30 1   
     9     4     5 ar  
    10     4    31 1   
    11     5    18 ar  
    12     6     8 ar  
    13     6    12 ar  
    14     6    14 1   
    15     7    11 ar  
    16     7    12 ar  
    17     7    32 1   
    18     8    13 ar  
    19     8    33 1   
    20     9    24 ar  
    21     9    27 ar  
    22     9    34 1   
    23    10    26 ar  
    24    10    27 ar  
    25    10    35 1   
    26    11    13 ar  
    27    11    44 1   
    28    12    36 1   
    29    13    37 1   
    30    14    15 2   
    31    14    16 2   
    32    17    18 ar  
    33    17    38 1   
    34    18    19 1   
    35    19    20 1   
    36    19    39 1   
    37    20    21 2   
    38    20    22 1   
    39    22    23 1   
    40    22    24 1   
    41    22    40 1   
    42    23    41 1   
    43    24    25 ar  
    44    25    26 ar  
    45    25    42 1   
    46    27    43 1   
@<TRIPOS>SUBSTRUCTURE
     1 Q5K         1 TEMP              0 ****  ****    0 ROOT
