@<TRIPOS>MOLECULE
Q5L
   22    22     1     0     0
SMALL
abcg2


@<TRIPOS>ATOM
      1 N1         -20.3950   -40.0280     5.6010 na         1 Q5L      -0.002200
      2 C4         -19.9560   -41.4880     7.0720 cc         1 Q5L       0.199500
      3 C5         -18.7150   -41.0260     6.5830 cc         1 Q5L      -0.166000
      4 C6         -19.0440   -40.0840     5.6340 cd         1 Q5L      -0.178000
      5 N          -21.4640   -42.7800     8.4070 ns         1 Q5L      -0.496900
      6 C          -22.0320   -43.0420    10.7890 c3         1 Q5L      -0.106600
      7 O          -19.2220   -43.0750     8.6690 o          1 Q5L      -0.611100
      8 C1         -21.8960   -43.7290     9.4300 c3         1 Q5L       0.113700
      9 C2         -23.1960   -44.3900     8.9870 c3         1 Q5L      -0.106600
     10 C3         -20.1780   -42.5160     8.1210 c          1 Q5L       0.529600
     11 N2         -20.9730   -40.8700     6.4630 nd         1 Q5L      -0.523800
     12 H10        -20.9680   -39.4410     5.0140 hn         1 Q5L       0.374000
     13 H8         -17.7320   -41.3400     6.8850 ha         1 Q5L       0.163000
     14 H9         -18.4380   -39.4630     4.9950 h4         1 Q5L       0.158000
     15 H7         -22.1670   -42.2360     7.9290 hn         1 Q5L       0.326500
     16 H2         -21.0900   -42.5740    11.0800 hc         1 Q5L       0.041700
     17 H1         -22.8060   -42.2720    10.7510 hc         1 Q5L       0.041700
     18 H          -22.3080   -43.7700    11.5550 hc         1 Q5L       0.041700
     19 H3         -21.1110   -44.4840     9.4960 h1         1 Q5L       0.076700
     20 H4         -23.0660   -44.9110     8.0370 hc         1 Q5L       0.041700
     21 H6         -23.5240   -45.1110     9.7370 hc         1 Q5L       0.041700
     22 H5         -23.9860   -43.6430     8.8680 hc         1 Q5L       0.041700
@<TRIPOS>BOND
     1     1     4 1   
     2     1    11 1   
     3     1    12 1   
     4     2     3 1   
     5     2    10 1   
     6     2    11 2   
     7     3     4 2   
     8     3    13 1   
     9     4    14 1   
    10     5     8 1   
    11     5    10 1   
    12     5    15 1   
    13     6     8 1   
    14     6    16 1   
    15     6    17 1   
    16     6    18 1   
    17     7    10 2   
    18     8     9 1   
    19     8    19 1   
    20     9    20 1   
    21     9    21 1   
    22     9    22 1   
@<TRIPOS>SUBSTRUCTURE
     1 Q5L         1 TEMP              0 ****  ****    0 ROOT
