@<TRIPOS>MOLECULE
Q5L
   22    22     1     0     0
SMALL
No Charge or Current Charge


@<TRIPOS>ATOM
      1 N1         -20.3770   -40.0060     5.4850 na         1 Q5L      -0.002200
      2 C4         -20.0320   -41.4340     7.0360 cc         1 Q5L       0.199500
      3 C5         -18.7740   -40.9640     6.6160 cc         1 Q5L      -0.166000
      4 C6         -18.9840   -40.0530     5.6270 cd         1 Q5L      -0.178000
      5 N          -21.4770   -42.8010     8.4050 ns         1 Q5L      -0.496900
      6 C          -21.9750   -43.0830    10.8100 c3         1 Q5L      -0.106600
      7 O          -19.2250   -42.9680     8.7310 o          1 Q5L      -0.611100
      8 C1         -21.9060   -43.7560     9.4250 c3         1 Q5L       0.113700
      9 C2         -23.2470   -44.3970     9.0220 c3         1 Q5L      -0.106600
     10 C3         -20.1660   -42.4610     8.1280 c          1 Q5L       0.529600
     11 N2         -21.0320   -40.8690     6.3660 nd         1 Q5L      -0.523800
     12 H10        -20.8960   -39.4230     4.8270 hn         1 Q5L       0.374000
     13 H8         -17.8190   -41.2850     7.0220 ha         1 Q5L       0.163000
     14 H9         -18.2960   -39.4580     5.0340 h4         1 Q5L       0.158000
     15 H7         -22.1810   -42.3260     7.8500 hn         1 Q5L       0.326500
     16 H2         -20.9980   -42.6720    11.0910 hc         1 Q5L       0.041700
     17 H1         -22.7060   -42.2650    10.8110 hc         1 Q5L       0.041700
     18 H          -22.2700   -43.8090    11.5780 hc         1 Q5L       0.041700
     19 H3         -21.1580   -44.5600     9.4770 h1         1 Q5L       0.076700
     20 H4         -23.1590   -44.8960     8.0490 hc         1 Q5L       0.041700
     21 H6         -23.5530   -45.1480     9.7610 hc         1 Q5L       0.041700
     22 H5         -24.0380   -43.6410     8.9520 hc         1 Q5L       0.041700
@<TRIPOS>BOND
     1     1     4 1   
     2     1    11 1   
     3     1    12 1   
     4     2     3 1   
     5     2    10 1   
     6     2    11 2   
     7     3     4 2   
     8     3    13 1   
     9     4    14 1   
    10     5     8 1   
    11     5    10 1   
    12     5    15 1   
    13     6     8 1   
    14     6    16 1   
    15     6    17 1   
    16     6    18 1   
    17     7    10 2   
    18     8     9 1   
    19     8    19 1   
    20     9    20 1   
    21     9    21 1   
    22     9    22 1   
@<TRIPOS>SUBSTRUCTURE
     1 Q5L         1 TEMP              0 ****  ****    0 ROOT
