@<TRIPOS>MOLECULE
Q5M
   28    29     1     0     0
SMALL
No Charge or Current Charge


@<TRIPOS>ATOM
      1 C10          0.5340     0.7620    -0.6970 ca         1 Q5M      -0.138600
      2 C13         -2.0530     0.4350    -0.6080 c3         1 Q5M      -0.147400
      3 C15         -3.7890    -0.4940     1.0030 c          1 Q5M       0.717000
      4 C01          3.8060    -1.6510     0.5430 ca         1 Q5M      -0.113000
      5 C02          2.6650    -2.2560    -0.0040 ca         1 Q5M      -0.125000
      6 C03          1.5760    -1.4680    -0.4170 ca         1 Q5M      -0.075000
      7 C04          1.6190    -0.0590    -0.2910 ca         1 Q5M      -0.002000
      8 C05          2.7730     0.5400     0.2730 ca         1 Q5M      -0.048000
      9 C06          3.8600    -0.2560     0.6830 ca         1 Q5M      -0.110000
     10 C07          2.8420     1.9360     0.4330 ca         1 Q5M      -0.102000
     11 C08          1.7660     2.7430     0.0390 ca         1 Q5M      -0.114000
     12 C09          0.6190     2.1610    -0.5220 ca         1 Q5M      -0.079000
     13 C11         -0.7130     0.1900    -1.3190 c          1 Q5M       0.569700
     14 O12         -0.6660    -0.4390    -2.3710 o          1 Q5M      -0.538100
     15 C14         -2.4530    -0.7690     0.2910 c3         1 Q5M      -0.203400
     16 O16         -4.8210    -0.8030     0.4290 o          1 Q5M      -0.740000
     17 O17         -3.7590     0.0770     2.0820 o          1 Q5M      -0.740000
     18 H1          -1.9620     1.3100     0.0470 hc         1 Q5M       0.066700
     19 H2          -2.8360     0.5980    -1.3580 hc         1 Q5M       0.066700
     20 H3           4.6470    -2.2630     0.8620 ha         1 Q5M       0.102000
     21 H4           2.6210    -3.3380    -0.1070 ha         1 Q5M       0.107000
     22 H5           0.7050    -1.9710    -0.8280 ha         1 Q5M       0.139000
     23 H6           4.7460     0.2050     1.1130 ha         1 Q5M       0.102000
     24 H7           3.7270     2.3960     0.8660 ha         1 Q5M       0.102000
     25 H8           1.8210     3.8220     0.1640 ha         1 Q5M       0.109000
     26 H9          -0.2030     2.8030    -0.8340 ha         1 Q5M       0.130000
     27 H10         -2.5530    -1.6290    -0.3830 hc         1 Q5M       0.031700
     28 H11         -1.6460    -0.8770     1.0260 hc         1 Q5M       0.031700
@<TRIPOS>BOND
     1     1     7 ar  
     2     1    12 ar  
     3     1    13 1   
     4     2    13 1   
     5     2    15 1   
     6     2    18 1   
     7     2    19 1   
     8     3    15 1   
     9     3    16 1   
    10     3    17 1   
    11     4     5 ar  
    12     4     9 ar  
    13     4    20 1   
    14     5     6 ar  
    15     5    21 1   
    16     6     7 ar  
    17     6    22 1   
    18     7     8 ar  
    19     8     9 ar  
    20     8    10 ar  
    21     9    23 1   
    22    10    11 ar  
    23    10    24 1   
    24    11    12 ar  
    25    11    25 1   
    26    12    26 1   
    27    13    14 2   
    28    15    27 1   
    29    15    28 1   
@<TRIPOS>SUBSTRUCTURE
     1 Q5M         1 TEMP              0 ****  ****    0 ROOT
