@<TRIPOS>MOLECULE
Q5M
   28    29     1     0     0
SMALL
abcg2


@<TRIPOS>ATOM
      1 C10          0.5640     0.4770    -0.3470 ca         1 Q5M      -0.138600
      2 C13         -1.9650     0.2410     0.0060 c3         1 Q5M      -0.147400
      3 C15         -4.4550    -0.1340     0.4880 c          1 Q5M       0.717000
      4 C01          4.3510    -1.3170     0.3860 ca         1 Q5M      -0.113000
      5 C02          3.2070    -2.1260     0.2490 ca         1 Q5M      -0.125000
      6 C03          1.9790    -1.5730     0.0020 ca         1 Q5M      -0.075000
      7 C04          1.8200    -0.1700    -0.1210 ca         1 Q5M      -0.002000
      8 C05          2.9770     0.6430     0.0400 ca         1 Q5M      -0.048000
      9 C06          4.2330     0.0400     0.2870 ca         1 Q5M      -0.110000
     10 C07          2.8670     2.0510    -0.0370 ca         1 Q5M      -0.102000
     11 C08          1.6550     2.6440    -0.2430 ca         1 Q5M      -0.114000
     12 C09          0.5040     1.8510    -0.3850 ca         1 Q5M      -0.079000
     13 C11         -0.6920    -0.2950    -0.5990 c          1 Q5M       0.569700
     14 O12         -0.6720    -1.3080    -1.2660 o          1 Q5M      -0.538100
     15 C14         -3.1400    -0.7170    -0.0600 c3         1 Q5M      -0.203400
     16 O16         -4.5740     1.1070     0.5020 o          1 Q5M      -0.740000
     17 O17         -5.3160    -0.9640     0.8460 o          1 Q5M      -0.740000
     18 H1          -1.7520     0.5300     1.0390 hc         1 Q5M       0.066700
     19 H2          -2.2240     1.1780    -0.4960 hc         1 Q5M       0.066700
     20 H3           5.3140    -1.7710     0.5800 ha         1 Q5M       0.102000
     21 H4           3.2980    -3.2000     0.3410 ha         1 Q5M       0.107000
     22 H5           1.1270    -2.2290    -0.0930 ha         1 Q5M       0.139000
     23 H6           5.1010     0.6790     0.4040 ha         1 Q5M       0.102000
     24 H7           3.7610     2.6520     0.0760 ha         1 Q5M       0.102000
     25 H8           1.5710     3.7210    -0.2970 ha         1 Q5M       0.109000
     26 H9          -0.4420     2.3480    -0.5560 ha         1 Q5M       0.130000
     27 H10         -3.3200    -1.0140    -1.0990 hc         1 Q5M       0.031700
     28 H11         -2.9040    -1.6420     0.4710 hc         1 Q5M       0.031700
@<TRIPOS>BOND
     1     1     7 ar  
     2     1    12 ar  
     3     1    13 1   
     4     2    13 1   
     5     2    15 1   
     6     2    18 1   
     7     2    19 1   
     8     3    15 1   
     9     3    16 1   
    10     3    17 1   
    11     4     5 ar  
    12     4     9 ar  
    13     4    20 1   
    14     5     6 ar  
    15     5    21 1   
    16     6     7 ar  
    17     6    22 1   
    18     7     8 ar  
    19     8     9 ar  
    20     8    10 ar  
    21     9    23 1   
    22    10    11 ar  
    23    10    24 1   
    24    11    12 ar  
    25    11    25 1   
    26    12    26 1   
    27    13    14 2   
    28    15    27 1   
    29    15    28 1   
@<TRIPOS>SUBSTRUCTURE
     1 Q5M         1 TEMP              0 ****  ****    0 ROOT
