@<TRIPOS>MOLECULE
Q5O
   50    52     1     0     0
SMALL
No Charge or Current Charge


@<TRIPOS>ATOM
      1 N1          13.4640     3.0780     4.0910 ns         1 Q5O      -0.141000
      2 C4          11.2860     1.2490     5.0780 ca         1 Q5O       0.181000
      3 C5          10.4950     0.1930     5.5490 ca         1 Q5O      -0.157000
      4 C6          10.7450    -0.4040     6.7890 ca         1 Q5O       0.213000
      5 C7          13.3010     2.8510     5.4520 c          1 Q5O       0.621700
      6 C8          14.2070     4.0510     3.3600 ca         1 Q5O      -0.050000
      7 C10         15.4180     6.1750     3.2020 ca         1 Q5O      -0.133000
      8 C13         14.4340     3.8330     1.9800 ca         1 Q5O      -0.085300
      9 C15         16.9260     8.0780     1.4720 c3         1 Q5O       0.385300
     10 C17         11.5660    -2.2540    10.7090 c3         1 Q5O       0.153300
     11 C20         14.5300    -4.6620    10.3620 ca         1 Q5O      -0.148500
     12 C21         13.8720    -5.8760    10.1150 ca         1 Q5O       0.170000
     13 C22         12.4710    -5.9240    10.0590 ca         1 Q5O      -0.148500
     14 C1          11.8020     0.0570     7.6070 ca         1 Q5O      -0.189600
     15 C2          12.5950     1.1250     7.1250 ca         1 Q5O       0.005000
     16 C3          12.3680     1.7260     5.8630 ca         1 Q5O      -0.167600
     17 C9          14.6990     5.2330     3.9570 ca         1 Q5O      -0.087000
     18 C11         15.6530     5.9530     1.8290 ca         1 Q5O       0.112100
     19 C12         15.1560     4.7840     1.2320 ca         1 Q5O      -0.103000
     20 C14         13.9140     2.5790     1.2820 c3         1 Q5O      -0.048800
     21 O1          16.3510     6.8320     1.0190 os         1 Q5O      -0.390100
     22 F2          17.8360     7.8720     2.4550 f          1 Q5O      -0.134000
     23 F3          15.9780     8.9070     1.9690 f          1 Q5O      -0.134000
     24 O2          13.8910     3.5060     6.3040 o          1 Q5O      -0.558100
     25 C16         12.1380    -0.5260     8.9670 c          1 Q5O       0.618700
     26 O3          13.0740    -0.1000     9.6290 o          1 Q5O      -0.596100
     27 N2          11.3570    -1.5540     9.4410 ns         1 Q5O      -0.495900
     28 C18         12.3740    -3.5260    10.5040 ca         1 Q5O      -0.131300
     29 C19         13.7820    -3.4870    10.5570 ca         1 Q5O      -0.071500
     30 C23         11.7210    -4.7500    10.2530 ca         1 Q5O      -0.071500
     31 H1          12.9560     2.4300     3.5040 hn         1 Q5O       0.158000
     32 H3           9.6650    -0.1650     4.9470 ha         1 Q5O       0.156000
     33 H4          15.7760     7.0690     3.7020 ha         1 Q5O       0.139000
     34 H5          17.4270     8.5860     0.6410 h3         1 Q5O       0.109700
     35 H6          12.0770    -1.5940    11.4230 h1         1 Q5O       0.069200
     36 H7          10.5860    -2.5030    11.1380 h1         1 Q5O       0.069200
     37 H8          15.6160    -4.6320    10.4030 ha         1 Q5O       0.134500
     38 H9          11.9690    -6.8680     9.8650 ha         1 Q5O       0.134500
     39 H10         13.4190     1.4880     7.7380 ha         1 Q5O       0.158000
     40 H11         14.5210     5.4500     5.0060 ha         1 Q5O       0.145000
     41 H12         15.3360     4.6200     0.1730 ha         1 Q5O       0.131000
     42 H13         14.2400     1.6690     1.8010 hc         1 Q5O       0.045700
     43 H14         12.8180     2.5740     1.2460 hc         1 Q5O       0.045700
     44 H15         14.2750     2.5080     0.2490 hc         1 Q5O       0.045700
     45 H16         10.6020    -1.8640     8.8420 hn         1 Q5O       0.325500
     46 H17         14.2960    -2.5460    10.7450 ha         1 Q5O       0.123500
     47 H18         10.6350    -4.7920    10.2060 ha         1 Q5O       0.123500
     48 Cl1         10.7910     1.9580     3.5380 cl         1 Q5O      -0.175000
     49 F1           9.9340    -1.4180     7.1650 f          1 Q5O      -0.172000
     50 F4          14.5920    -7.0040     9.9280 f          1 Q5O      -0.183000
@<TRIPOS>BOND
     1     1     5 1   
     2     1     6 1   
     3     1    31 1   
     4     2     3 ar  
     5     2    16 ar  
     6     2    48 1   
     7     3     4 ar  
     8     3    32 1   
     9     4    14 ar  
    10     4    49 1   
    11     5    16 1   
    12     5    24 2   
    13     6     8 ar  
    14     6    17 ar  
    15     7    17 ar  
    16     7    18 ar  
    17     7    33 1   
    18     8    19 ar  
    19     8    20 1   
    20     9    21 1   
    21     9    22 1   
    22     9    23 1   
    23     9    34 1   
    24    10    27 1   
    25    10    28 1   
    26    10    35 1   
    27    10    36 1   
    28    11    12 ar  
    29    11    29 ar  
    30    11    37 1   
    31    12    13 ar  
    32    12    50 1   
    33    13    30 ar  
    34    13    38 1   
    35    14    15 ar  
    36    14    25 1   
    37    15    16 ar  
    38    15    39 1   
    39    17    40 1   
    40    18    19 ar  
    41    18    21 1   
    42    19    41 1   
    43    20    42 1   
    44    20    43 1   
    45    20    44 1   
    46    25    26 2   
    47    25    27 1   
    48    27    45 1   
    49    28    29 ar  
    50    28    30 ar  
    51    29    46 1   
    52    30    47 1   
@<TRIPOS>SUBSTRUCTURE
     1 Q5O         1 TEMP              0 ****  ****    0 ROOT
