@<TRIPOS>MOLECULE
Q5O
   50    52     1     0     0
SMALL
abcg2


@<TRIPOS>ATOM
      1 N1          13.1850     2.8110     4.2370 ns         1 Q5O      -0.141000
      2 C4          10.4160     1.5750     5.0940 ca         1 Q5O       0.181000
      3 C5           9.5840     0.5660     5.5560 ca         1 Q5O      -0.157000
      4 C6           9.9310    -0.0910     6.7200 ca         1 Q5O       0.213000
      5 C7          12.4900     3.0500     5.3750 c          1 Q5O       0.621700
      6 C8          14.1240     3.6650     3.6130 ca         1 Q5O      -0.050000
      7 C10         15.8830     5.3240     3.7400 ca         1 Q5O      -0.133000
      8 C13         14.2430     3.6190     2.2140 ca         1 Q5O      -0.085300
      9 C15         17.6850     6.9900     2.1540 c3         1 Q5O       0.385300
     10 C17         11.4930    -2.4470    10.1400 c3         1 Q5O       0.153300
     11 C20         15.1200    -3.4490     9.5300 ca         1 Q5O      -0.148500
     12 C21         15.0570    -4.7950     9.8490 ca         1 Q5O       0.170000
     13 C22         13.8830    -5.4100    10.2380 ca         1 Q5O      -0.148500
     14 C1          11.0650     0.2290     7.4610 ca         1 Q5O      -0.189600
     15 C2          11.8570     1.2670     6.9760 ca         1 Q5O       0.005000
     16 C3          11.5680     1.9360     5.7930 ca         1 Q5O      -0.167600
     17 C9          14.9450     4.5050     4.3590 ca         1 Q5O      -0.087000
     18 C11         15.9940     5.2830     2.3590 ca         1 Q5O       0.112100
     19 C12         15.1890     4.4370     1.6080 ca         1 Q5O      -0.103000
     20 C14         13.3750     2.7150     1.3840 c3         1 Q5O      -0.048800
     21 O1          16.8880     6.0430     1.6030 os         1 Q5O      -0.390100
     22 F2          18.5580     6.4570     3.0670 f          1 Q5O      -0.134000
     23 F3          16.9650     7.9320     2.8360 f          1 Q5O      -0.134000
     24 O2          12.5980     4.0570     6.0640 o          1 Q5O      -0.558100
     25 C16         11.4850    -0.4130     8.7540 c          1 Q5O       0.618700
     26 O3          12.1270     0.2400     9.5770 o          1 Q5O      -0.596100
     27 N2          11.1540    -1.7030     8.9340 ns         1 Q5O      -0.495900
     28 C18         12.7510    -3.2780    10.0110 ca         1 Q5O      -0.131300
     29 C19         13.9570    -2.6950     9.6160 ca         1 Q5O      -0.071500
     30 C23         12.7280    -4.6370    10.3140 ca         1 Q5O      -0.071500
     31 H1          12.9700     1.9520     3.7540 hn         1 Q5O       0.158000
     32 H3           8.6780     0.2970     5.0320 ha         1 Q5O       0.156000
     33 H4          16.5040     5.9640     4.3450 ha         1 Q5O       0.139000
     34 H5          18.2500     7.4740     1.3620 h3         1 Q5O       0.109700
     35 H6          11.6040    -1.7210    10.9450 h1         1 Q5O       0.069200
     36 H7          10.6510    -3.0940    10.3830 h1         1 Q5O       0.069200
     37 H8          16.0600    -3.0070     9.2290 ha         1 Q5O       0.134500
     38 H9          13.8740    -6.4670    10.4720 ha         1 Q5O       0.134500
     39 H10         12.7310     1.5500     7.5460 ha         1 Q5O       0.158000
     40 H11         14.8560     4.5240     5.4330 ha         1 Q5O       0.145000
     41 H12         15.3000     4.4270     0.5310 ha         1 Q5O       0.131000
     42 H13         13.5530     1.6610     1.6180 hc         1 Q5O       0.045700
     43 H14         12.3160     2.9100     1.5640 hc         1 Q5O       0.045700
     44 H15         13.5770     2.8580     0.3240 hc         1 Q5O       0.045700
     45 H16         10.6780    -2.1980     8.1980 hn         1 Q5O       0.325500
     46 H17         13.9910    -1.6400     9.3780 ha         1 Q5O       0.123500
     47 H18         11.7980    -5.1030    10.6160 ha         1 Q5O       0.123500
     48 CL1          9.9600     2.4160     3.6380 cl         1 Q5O      -0.175000
     49 F1           9.0960    -1.0630     7.1480 f          1 Q5O      -0.172000
     50 F4          16.1930    -5.5370     9.7770 f          1 Q5O      -0.183000
@<TRIPOS>BOND
     1     1     5 1   
     2     1     6 1   
     3     1    31 1   
     4     2     3 ar  
     5     2    16 ar  
     6     2    48 1   
     7     3     4 ar  
     8     3    32 1   
     9     4    14 ar  
    10     4    49 1   
    11     5    16 1   
    12     5    24 2   
    13     6     8 ar  
    14     6    17 ar  
    15     7    17 ar  
    16     7    18 ar  
    17     7    33 1   
    18     8    19 ar  
    19     8    20 1   
    20     9    21 1   
    21     9    22 1   
    22     9    23 1   
    23     9    34 1   
    24    10    27 1   
    25    10    28 1   
    26    10    35 1   
    27    10    36 1   
    28    11    12 ar  
    29    11    29 ar  
    30    11    37 1   
    31    12    13 ar  
    32    12    50 1   
    33    13    30 ar  
    34    13    38 1   
    35    14    15 ar  
    36    14    25 1   
    37    15    16 ar  
    38    15    39 1   
    39    17    40 1   
    40    18    19 ar  
    41    18    21 1   
    42    19    41 1   
    43    20    42 1   
    44    20    43 1   
    45    20    44 1   
    46    25    26 2   
    47    25    27 1   
    48    27    45 1   
    49    28    29 ar  
    50    28    30 ar  
    51    29    46 1   
    52    30    47 1   
@<TRIPOS>SUBSTRUCTURE
     1 Q5O         1 TEMP              0 ****  ****    0 ROOT
