@<TRIPOS>MOLECULE
Q5Q
   26    28     1     0     0
SMALL
No Charge or Current Charge


@<TRIPOS>ATOM
      1 C01        -20.5850   -41.6840   -45.6950 c3         1 Q5Q      -0.041800
      2 C02        -19.2580   -40.9840   -45.9470 ca         1 Q5Q      -0.113300
      3 C03        -19.1870   -39.9170   -46.8790 ca         1 Q5Q      -0.070000
      4 C04        -17.9650   -39.2590   -47.1280 ca         1 Q5Q      -0.143000
      5 C05        -16.8420   -39.7010   -46.4250 ca         1 Q5Q      -0.005200
      6 C07        -14.6950   -39.9770   -45.5940 ca         1 Q5Q      -0.025200
      7 C08        -13.3270   -39.8470   -45.3350 ca         1 Q5Q       0.128100
      8 C10        -12.7560   -40.7270   -44.3980 ca         1 Q5Q      -0.167000
      9 C11        -13.5540   -41.7010   -43.7500 ca         1 Q5Q       0.004100
     10 C13        -14.9430   -41.8180   -44.0270 ca         1 Q5Q       0.022100
     11 C14        -15.5110   -40.9260   -44.9740 cp         1 Q5Q      -0.035000
     12 C15        -16.8720   -40.7480   -45.5050 cp         1 Q5Q      -0.087000
     13 C16        -18.0970   -41.4070   -45.2560 ca         1 Q5Q      -0.039000
     14 N06        -15.5190   -39.2500   -46.4640 na         1 Q5Q      -0.209600
     15 O09        -12.5750   -38.9000   -45.9700 oh         1 Q5Q      -0.539100
     16 Br2        -12.6980   -42.8630   -42.4840 br         1 Q5Q      -0.071100
     17 Br1        -15.9760   -43.1590   -43.1170 br         1 Q5Q      -0.062100
     18 H011       -20.7040   -42.5460   -46.3620 hc         1 Q5Q       0.041033
     19 H012       -20.6560   -42.0460   -44.6620 hc         1 Q5Q       0.041033
     20 H013       -21.4330   -41.0090   -45.8650 hc         1 Q5Q       0.041033
     21 H031       -20.0820   -39.5990   -47.4100 ha         1 Q5Q       0.112000
     22 H041       -17.9010   -38.4400   -47.8400 ha         1 Q5Q       0.118000
     23 H101       -11.6960   -40.6640   -44.1640 ha         1 Q5Q       0.130000
     24 H161       -18.1610   -42.2260   -44.5490 ha         1 Q5Q       0.126000
     25 H061       -15.1890   -38.4900   -47.0490 hn         1 Q5Q       0.367000
     26 H091       -11.6480   -38.9710   -45.6540 ho         1 Q5Q       0.476000
@<TRIPOS>BOND
     1     1     2 1   
     2     1    18 1   
     3     1    19 1   
     4     1    20 1   
     5     2     3 ar  
     6     2    13 ar  
     7     3     4 ar  
     8     3    21 1   
     9     4     5 ar  
    10     4    22 1   
    11     5    12 ar  
    12     5    14 1   
    13     6     7 ar  
    14     6    11 ar  
    15     6    14 1   
    16     7     8 ar  
    17     7    15 1   
    18     8     9 ar  
    19     8    23 1   
    20     9    10 ar  
    21     9    16 1   
    22    10    11 ar  
    23    10    17 1   
    24    11    12 1   
    25    12    13 ar  
    26    13    24 1   
    27    14    25 1   
    28    15    26 1   
@<TRIPOS>SUBSTRUCTURE
     1 Q5Q         1 TEMP              0 ****  ****    0 ROOT
