@<TRIPOS>MOLECULE
Q5Q
   26    28     1     0     0
SMALL
bcc


@<TRIPOS>ATOM
      1 C01        -20.5620   -41.6460   -45.7250 c3         1 Q5Q      -0.041800
      2 C02        -19.2260   -40.9950   -45.9390 ca         1 Q5Q      -0.113300
      3 C03        -19.1040   -39.9460   -46.8690 ca         1 Q5Q      -0.088000
      4 C04        -17.9030   -39.3140   -47.1090 ca         1 Q5Q      -0.161000
      5 C05        -16.7890   -39.7490   -46.3940 ca         1 Q5Q      -0.005200
      6 C07        -14.7360   -40.0090   -45.5840 ca         1 Q5Q      -0.025200
      7 C08        -13.3690   -39.8700   -45.3330 ca         1 Q5Q       0.128100
      8 C10        -12.7990   -40.7190   -44.4060 ca         1 Q5Q      -0.185000
      9 C11        -13.5750   -41.6760   -43.7370 ca         1 Q5Q       0.004100
     10 C13        -14.9290   -41.8110   -43.9820 ca         1 Q5Q       0.022100
     11 C14        -15.5320   -40.9650   -44.9260 cp         1 Q5Q      -0.035000
     12 C15        -16.8690   -40.7960   -45.4540 cp         1 Q5Q      -0.087000
     13 C16        -18.1080   -41.4120   -45.2370 ca         1 Q5Q      -0.057000
     14 N06        -15.5040   -39.2910   -46.4510 na         1 Q5Q      -0.159300
     15 O09        -12.7100   -38.9200   -46.0140 oh         1 Q5Q      -0.500100
     16 BR2        -12.6880   -42.7700   -42.4860 br         1 Q5Q      -0.071100
     17 BR1        -15.9550   -43.0910   -43.0710 br         1 Q5Q      -0.062100
     18 H011       -20.9030   -42.1620   -46.6250 hc         1 Q5Q       0.041033
     19 H012       -20.5260   -42.3780   -44.9190 hc         1 Q5Q       0.041033
     20 H013       -21.3270   -40.9100   -45.4710 hc         1 Q5Q       0.041033
     21 H031       -19.9830   -39.6230   -47.4140 ha         1 Q5Q       0.130000
     22 H041       -17.8260   -38.5080   -47.8270 ha         1 Q5Q       0.136000
     23 H101       -11.7400   -40.6390   -44.1910 ha         1 Q5Q       0.148000
     24 H161       -18.2130   -42.2180   -44.5250 ha         1 Q5Q       0.144000
     25 H061       -15.1730   -38.5570   -47.0560 hn         1 Q5Q       0.316700
     26 H091       -11.7800   -38.8870   -45.7560 ho         1 Q5Q       0.437000
@<TRIPOS>BOND
     1     1     2 1   
     2     1    18 1   
     3     1    19 1   
     4     1    20 1   
     5     2     3 ar  
     6     2    13 ar  
     7     3     4 ar  
     8     3    21 1   
     9     4     5 ar  
    10     4    22 1   
    11     5    12 ar  
    12     5    14 1   
    13     6     7 ar  
    14     6    11 ar  
    15     6    14 1   
    16     7     8 ar  
    17     7    15 1   
    18     8     9 ar  
    19     8    23 1   
    20     9    10 ar  
    21     9    16 1   
    22    10    11 ar  
    23    10    17 1   
    24    11    12 1   
    25    12    13 ar  
    26    13    24 1   
    27    14    25 1   
    28    15    26 1   
@<TRIPOS>SUBSTRUCTURE
     1 Q5Q         1 TEMP              0 ****  ****    0 ROOT
