@<TRIPOS>MOLECULE
Q5R
   44    47     1     0     0
SMALL
abcg2


@<TRIPOS>ATOM
      1 N1          10.4180    -1.0480    23.0750 nh         1 Q5R      -0.793400
      2 C4           9.0880    -2.7140    21.8300 c6         1 Q5R       0.061500
      3 C5          11.7850    -1.3490    23.0480 ca         1 Q5R       0.298000
      4 C6          12.6990    -0.6180    22.2680 ca         1 Q5R      -0.167500
      5 C7          14.0610    -0.8950    22.3130 ca         1 Q5R      -0.076500
      6 C8          14.5620    -1.9100    23.1180 ca         1 Q5R      -0.145000
      7 C10         12.3060    -2.3740    23.8600 ca         1 Q5R      -0.167500
      8 C13          6.6580     0.4990    17.3490 c          1 Q5R       0.556200
      9 C15          6.2580     0.5500    20.1830 ca         1 Q5R      -0.123800
     10 C17          5.3780     1.7120    22.1150 ca         1 Q5R      -0.145000
     11 O1           6.8040     0.5230    16.1220 o          1 Q5R      -0.548000
     12 C12          7.1410    -0.5650    18.2090 cc         1 Q5R      -0.259200
     13 N2           6.0070     1.5210    18.0010 ns         1 Q5R      -0.374100
     14 C14          5.7900     1.5950    19.3580 ca         1 Q5R       0.102600
     15 C19          5.1190     2.6890    19.9180 ca         1 Q5R      -0.166000
     16 C18          4.9180     2.7410    21.2830 ca         1 Q5R      -0.053000
     17 C16          6.0380     0.6310    21.5690 ca         1 Q5R      -0.049000
     18 C11          6.9510    -0.5410    19.5480 cd         1 Q5R      -0.035400
     19 O            6.6180    -2.6610    20.5250 o          1 Q5R      -0.588100
     20 N            8.6140    -1.6480    20.9470 n          1 Q5R      -0.406800
     21 C3           9.4440    -2.1330    23.2000 c6         1 Q5R       0.180800
     22 C2           9.8830     0.0050    22.2200 c6         1 Q5R       0.180800
     23 C1           9.5310    -0.5140    20.8240 c6         1 Q5R       0.061500
     24 C9          13.6660    -2.6450    23.8900 ca         1 Q5R      -0.076500
     25 H1           8.3060    -3.4630    21.9160 h1         1 Q5R       0.068450
     26 H2           9.9720    -3.1740    21.3800 h1         1 Q5R       0.068450
     27 H3          12.3590     0.1660    21.6090 ha         1 Q5R       0.110000
     28 H4          14.7320    -0.3100    21.6960 ha         1 Q5R       0.110500
     29 H5          15.6230    -2.1250    23.1450 ha         1 Q5R       0.116000
     30 H6          11.6500    -2.9510    24.4950 ha         1 Q5R       0.110000
     31 H7           5.2150     1.7650    23.1830 ha         1 Q5R       0.123000
     32 H8           7.6650    -1.3780    17.7260 ha         1 Q5R       0.218000
     33 H9           5.6670     2.2730    17.4150 hn         1 Q5R       0.330500
     34 H10          4.7660     3.4830    19.2710 ha         1 Q5R       0.122000
     35 H11          4.4000     3.5900    21.7110 ha         1 Q5R       0.120000
     36 H12          6.3960    -0.1650    22.2090 ha         1 Q5R       0.123000
     37 H13          8.5420    -1.7290    23.6660 h1         1 Q5R       0.064950
     38 H14          9.8190    -2.9240    23.8410 h1         1 Q5R       0.064950
     39 H15         10.5790     0.8370    22.1520 h1         1 Q5R       0.064950
     40 H16          8.9720     0.3800    22.6920 h1         1 Q5R       0.064950
     41 H17         10.4330    -0.8530    20.3070 h1         1 Q5R       0.068450
     42 H18          9.0750     0.2720    20.2310 h1         1 Q5R       0.068450
     43 H19         14.0270    -3.4390    24.5330 ha         1 Q5R       0.110500
     44 C            7.3940    -1.7120    20.3880 c          1 Q5R       0.604300
@<TRIPOS>BOND
     1     1     3 1   
     2     1    21 1   
     3     1    22 1   
     4     2    20 1   
     5     2    21 1   
     6     2    25 1   
     7     2    26 1   
     8     3     4 ar  
     9     3     7 ar  
    10     4     5 ar  
    11     4    27 1   
    12     5     6 ar  
    13     5    28 1   
    14     6    24 ar  
    15     6    29 1   
    16     7    24 ar  
    17     7    30 1   
    18     8    11 2   
    19     8    12 1   
    20     8    13 1   
    21     9    14 ar  
    22     9    17 ar  
    23     9    18 1   
    24    10    16 ar  
    25    10    17 ar  
    26    10    31 1   
    27    12    18 2   
    28    12    32 1   
    29    13    14 1   
    30    13    33 1   
    31    14    15 ar  
    32    15    16 ar  
    33    15    34 1   
    34    16    35 1   
    35    17    36 1   
    36    18    44 1   
    37    19    44 2   
    38    20    23 1   
    39    20    44 1   
    40    21    37 1   
    41    21    38 1   
    42    22    23 1   
    43    22    39 1   
    44    22    40 1   
    45    23    41 1   
    46    23    42 1   
    47    24    43 1   
@<TRIPOS>SUBSTRUCTURE
     1 Q5R         1 TEMP              0 ****  ****    0 ROOT
