@<TRIPOS>MOLECULE
Q5R
   44    47     1     0     0
SMALL
No Charge or Current Charge


@<TRIPOS>ATOM
      1 N1          10.8040    -1.5660    22.2520 nh         1 Q5R      -0.793400
      2 C4           8.9090    -2.9430    21.3100 c6         1 Q5R       0.061500
      3 C5          12.0150    -1.4760    22.9780 ca         1 Q5R       0.298000
      4 C6          13.1440    -0.8850    22.3790 ca         1 Q5R      -0.167500
      5 C7          14.3590    -0.7840    23.0790 ca         1 Q5R      -0.076500
      6 C8          14.4530    -1.2750    24.3910 ca         1 Q5R      -0.145000
      7 C10         12.1220    -1.9670    24.2960 ca         1 Q5R      -0.167500
      8 C13          5.2970     0.4540    17.3910 c          1 Q5R       0.556200
      9 C15          6.3070     0.5830    20.1190 ca         1 Q5R      -0.123800
     10 C17          6.4290     1.8910    22.1900 ca         1 Q5R      -0.145000
     11 O1           4.8380     0.4370    16.2610 o          1 Q5R      -0.548000
     12 C12          5.9320    -0.7020    18.0370 cc         1 Q5R      -0.259200
     13 N2           5.2760     1.5810    18.1650 ns         1 Q5R      -0.374100
     14 C14          5.7230     1.7030    19.4890 ca         1 Q5R       0.102600
     15 C19          5.5390     2.9120    20.1790 ca         1 Q5R      -0.166000
     16 C18          5.9070     3.0130    21.5290 ca         1 Q5R      -0.053000
     17 C16          6.6130     0.6810    21.4980 ca         1 Q5R      -0.049000
     18 C11          6.4790    -0.6650    19.3160 cd         1 Q5R      -0.035400
     19 O            6.9490    -3.0180    19.3380 o          1 Q5R      -0.588100
     20 N            8.3010    -1.7370    20.6710 n          1 Q5R      -0.406800
     21 C3           9.8030    -2.6320    22.5430 c6         1 Q5R       0.180800
     22 C2          10.1740    -0.3310    21.7070 c6         1 Q5R       0.180800
     23 C1           9.2990    -0.6370    20.4620 c6         1 Q5R       0.061500
     24 C9          13.3350    -1.8660    25.0010 ca         1 Q5R      -0.076500
     25 H1           8.1150    -3.6360    21.6210 h1         1 Q5R       0.068450
     26 H2           9.5190    -3.4660    20.5590 h1         1 Q5R       0.068450
     27 H3          13.0830    -0.5130    21.3610 ha         1 Q5R       0.110000
     28 H4          15.2250    -0.3280    22.6050 ha         1 Q5R       0.110500
     29 H5          15.3920    -1.1970    24.9360 ha         1 Q5R       0.116000
     30 H6          11.2650    -2.4170    24.7870 ha         1 Q5R       0.110000
     31 H7           6.6820     1.9550    23.2460 ha         1 Q5R       0.123000
     32 H8           5.9950    -1.5840    17.4100 ha         1 Q5R       0.218000
     33 H9           4.8550     2.3980    17.7440 hn         1 Q5R       0.330500
     34 H10          5.0960     3.7690    19.6760 ha         1 Q5R       0.122000
     35 H11          5.7610     3.9470    22.0680 ha         1 Q5R       0.120000
     36 H12          6.9760    -0.1740    22.0600 ha         1 Q5R       0.123000
     37 H13          9.1560    -2.3190    23.3770 h1         1 Q5R       0.064950
     38 H14         10.3050    -3.5620    22.8480 h1         1 Q5R       0.064950
     39 H15         10.9360     0.4090    21.4220 h1         1 Q5R       0.064950
     40 H16          9.5440     0.1380    22.4770 h1         1 Q5R       0.064950
     41 H17          9.9680    -0.9410    19.6450 h1         1 Q5R       0.068450
     42 H18          8.8190     0.2910    20.1310 h1         1 Q5R       0.068450
     43 H19         13.4060    -2.2450    26.0180 ha         1 Q5R       0.110500
     44 C            7.2240    -1.9010    19.7680 c          1 Q5R       0.604300
@<TRIPOS>BOND
     1     1     3 1   
     2     1    21 1   
     3     1    22 1   
     4     2    20 1   
     5     2    21 1   
     6     2    25 1   
     7     2    26 1   
     8     3     4 ar  
     9     3     7 ar  
    10     4     5 ar  
    11     4    27 1   
    12     5     6 ar  
    13     5    28 1   
    14     6    24 ar  
    15     6    29 1   
    16     7    24 ar  
    17     7    30 1   
    18     8    11 2   
    19     8    12 1   
    20     8    13 1   
    21     9    14 ar  
    22     9    17 ar  
    23     9    18 1   
    24    10    16 ar  
    25    10    17 ar  
    26    10    31 1   
    27    12    18 2   
    28    12    32 1   
    29    13    14 1   
    30    13    33 1   
    31    14    15 ar  
    32    15    16 ar  
    33    15    34 1   
    34    16    35 1   
    35    17    36 1   
    36    18    44 1   
    37    19    44 2   
    38    20    23 1   
    39    20    44 1   
    40    21    37 1   
    41    21    38 1   
    42    22    23 1   
    43    22    39 1   
    44    22    40 1   
    45    23    41 1   
    46    23    42 1   
    47    24    43 1   
@<TRIPOS>SUBSTRUCTURE
     1 Q5R         1 TEMP              0 ****  ****    0 ROOT
