@<TRIPOS>MOLECULE
Q5S
  142   142     1     0     0
SMALL
abcg2


@<TRIPOS>ATOM
      1 C10         13.9540     1.1050     0.7960 c3         1 Q5S      -0.042200
      2 C01         19.4410    -2.3270    -0.2980 c3         1 Q5S      -0.056400
      3 C02         18.3220    -1.3310    -0.3870 c2         1 Q5S      -0.114400
      4 C03         16.9820    -1.9260    -0.7040 c3         1 Q5S      -0.056400
      5 C04         18.5370    -0.0280    -0.1890 c2         1 Q5S      -0.222200
      6 C05         17.5160     1.0690    -0.2310 c3         1 Q5S      -0.036200
      7 C06         16.9460     1.3850     1.1610 c3         1 Q5S      -0.037200
      8 C07         15.9940     2.5520     1.1410 c2         1 Q5S      -0.122400
      9 C08         16.6220     3.9040     1.3060 c3         1 Q5S      -0.051900
     10 C09         14.6790     2.4060     0.9620 c2         1 Q5S      -0.212200
     11 C11         13.3480     0.5970     2.1140 c3         1 Q5S      -0.033200
     12 C12         12.7050    -0.7560     1.9510 c2         1 Q5S      -0.126400
     13 C13         13.6030    -1.9290     2.2160 c3         1 Q5S      -0.051900
     14 C14         11.4450    -0.9270     1.5440 c2         1 Q5S      -0.208200
     15 C15         10.4710     0.1440     1.1680 c3         1 Q5S      -0.043200
     16 C16         10.1680     0.1250    -0.3400 c3         1 Q5S      -0.032200
     17 C17          9.2730     1.2610    -0.7570 c2         1 Q5S      -0.133400
     18 C18          9.9820     2.5470    -1.0690 c3         1 Q5S      -0.049900
     19 C19          7.9410     1.1770    -0.8100 c2         1 Q5S      -0.201200
     20 C20          7.0950    -0.0090    -0.4690 c3         1 Q5S      -0.044200
     21 C21          6.3170     0.2040     0.8410 c3         1 Q5S      -0.029200
     22 C22          5.4870    -0.9980     1.2070 c2         1 Q5S      -0.142400
     23 C23          6.1930    -2.0250     2.0430 c3         1 Q5S      -0.047900
     24 C24          4.2300    -1.1810     0.7930 c2         1 Q5S      -0.191200
     25 C25          3.4350    -0.2760    -0.0930 c3         1 Q5S      -0.048200
     26 C26          3.2380    -0.8800    -1.4940 c3         1 Q5S      -0.024200
     27 C27          2.5370     0.0720    -2.4260 c2         1 Q5S      -0.159400
     28 C28          3.4410     1.0110    -3.1700 c3         1 Q5S      -0.043900
     29 C29          1.2100     0.1340    -2.5600 c2         1 Q5S      -0.179200
     30 C30          0.1870    -0.6790    -1.8310 c3         1 Q5S      -0.053200
     31 C31         -0.6380     0.1960    -0.8720 c3         1 Q5S      -0.017200
     32 C32         -1.7190    -0.5820    -0.1700 c2         1 Q5S      -0.195400
     33 C33         -1.2850    -1.2880     1.0810 c3         1 Q5S      -0.033900
     34 C34         -2.9690    -0.6840    -0.6290 c2         1 Q5S      -0.138200
     35 C35         -3.5260    -0.0720    -1.8740 c3         1 Q5S      -0.048200
     36 C36         -3.7150    -1.1240    -2.9810 c3         1 Q5S      -0.032200
     37 C37         -4.3290    -0.5410    -4.2230 c2         1 Q5S      -0.128400
     38 C38         -3.3870     0.1900    -5.1310 c3         1 Q5S      -0.044900
     39 C39         -5.6340    -0.6210    -4.4970 c2         1 Q5S      -0.201200
     40 C40         -6.6500    -1.2930    -3.6220 c3         1 Q5S       0.255800
     41 C50        -10.2150     0.5500     1.9240 c6         1 Q5S       0.430300
     42 C52        -11.5800     2.2840     1.0490 c6         1 Q5S       0.158300
     43 C53        -12.2550     3.5580     1.5090 c3         1 Q5S       0.166600
     44 C55        -12.5910     1.2740     0.4950 c6         1 Q5S       0.096300
     45 C57        -11.9030    -0.0480     0.1690 c6         1 Q5S       0.166300
     46 C59        -11.1490    -0.5480     1.3930 c6         1 Q5S       0.083700
     47 C62         -9.1030    -3.6900     1.5690 c3         1 Q5S      -0.177100
     48 N60        -10.4060    -1.7400     1.0890 ns         1 Q5S      -0.490900
     49 O41         -6.9150    -0.4810    -2.4820 os         1 Q5S      -0.581400
     50 O43         -8.7570    -1.6100    -1.1240 o          1 Q5S      -0.858500
     51 O44         -6.2760    -2.2120    -0.6760 o          1 Q5S      -0.858500
     52 O45         -7.1340     0.1810    -0.2030 os         1 Q5S      -0.695800
     53 O47         -7.4870    -0.7160     2.2020 o          1 Q5S      -0.844500
     54 O48         -6.9560     1.7840     1.7080 o          1 Q5S      -0.844500
     55 O49         -9.1990     0.7770     0.9920 os         1 Q5S      -0.621400
     56 O51        -10.9150     1.7300     2.1710 os         1 Q5S      -0.465000
     57 O54        -11.2730     4.4760     1.9260 oh         1 Q5S      -0.678000
     58 O56        -13.1900     1.7380    -0.6970 oh         1 Q5S      -0.728000
     59 O58        -12.8370    -1.0310    -0.2070 oh         1 Q5S      -0.654000
     60 O63        -10.6010    -2.6750     3.1460 o          1 Q5S      -0.699100
     61 P42         -7.3060    -1.2020    -1.0640 p5         1 Q5S       1.483800
     62 P46         -7.6080     0.4930     1.3310 p5         1 Q5S       1.472800
     63 H1          13.1500     1.2300     0.0640 hc         1 Q5S       0.046200
     64 H2          14.6130     0.3380     0.3830 hc         1 Q5S       0.046200
     65 H3          19.2480    -3.0670     0.4830 hc         1 Q5S       0.038533
     66 H4          19.5410    -2.8850    -1.2330 hc         1 Q5S       0.038533
     67 H5          20.3980    -1.8530    -0.0840 hc         1 Q5S       0.038533
     68 H6          16.7200    -2.6870     0.0360 hc         1 Q5S       0.038533
     69 H7          16.1750    -1.1960    -0.7250 hc         1 Q5S       0.038533
     70 H8          17.0000    -2.4330    -1.6720 hc         1 Q5S       0.038533
     71 H9          19.5480     0.2840     0.0640 ha         1 Q5S       0.162000
     72 H10         17.9770     1.9710    -0.6430 hc         1 Q5S       0.044700
     73 H11         16.6920     0.8210    -0.9040 hc         1 Q5S       0.044700
     74 H12         16.4610     0.4880     1.5540 hc         1 Q5S       0.044700
     75 H13         17.7730     1.6040     1.8440 hc         1 Q5S       0.044700
     76 H14         17.3940     4.0770     0.5510 hc         1 Q5S       0.036367
     77 H15         15.8910     4.7090     1.2270 hc         1 Q5S       0.036367
     78 H16         17.1170     3.9880     2.2760 hc         1 Q5S       0.036367
     79 H17         14.0560     3.2980     0.9630 ha         1 Q5S       0.168000
     80 H18         14.1430     0.5350     2.8630 hc         1 Q5S       0.044700
     81 H19         12.6360     1.3350     2.4900 hc         1 Q5S       0.044700
     82 H20         13.9800    -1.9150     3.2420 hc         1 Q5S       0.035700
     83 H21         13.0960    -2.8800     2.0540 hc         1 Q5S       0.035700
     84 H22         14.4840    -1.9080     1.5660 hc         1 Q5S       0.035700
     85 H23         11.0840    -1.9460     1.4190 ha         1 Q5S       0.167000
     86 H24          9.5290    -0.0010     1.7070 hc         1 Q5S       0.049700
     87 H25         10.8390     1.1320     1.4530 hc         1 Q5S       0.049700
     88 H26         11.1140     0.1920    -0.8870 hc         1 Q5S       0.041700
     89 H27          9.7380    -0.8430    -0.6030 hc         1 Q5S       0.041700
     90 H28         10.6980     2.4120    -1.8830 hc         1 Q5S       0.034367
     91 H29          9.2900     3.3400    -1.3510 hc         1 Q5S       0.034367
     92 H30         10.5570     2.8990    -0.2070 hc         1 Q5S       0.034367
     93 H31          7.3890     2.0700    -1.0960 ha         1 Q5S       0.168000
     94 H32          6.3720    -0.1850    -1.2720 hc         1 Q5S       0.048700
     95 H33          7.6990    -0.9150    -0.3910 hc         1 Q5S       0.048700
     96 H34          7.0330     0.4050     1.6440 hc         1 Q5S       0.042700
     97 H35          5.7020     1.1010     0.7500 hc         1 Q5S       0.042700
     98 H36          6.4680    -1.6130     3.0170 hc         1 Q5S       0.033033
     99 H37          5.5840    -2.9140     2.2090 hc         1 Q5S       0.033033
    100 H38          7.1270    -2.3410     1.5690 hc         1 Q5S       0.033033
    101 H39          3.7290    -2.1020     1.0860 ha         1 Q5S       0.170000
    102 H40          2.4480    -0.1000     0.3470 hc         1 Q5S       0.053700
    103 H41          3.9050     0.7060    -0.1840 hc         1 Q5S       0.053700
    104 H42          4.2190    -1.1310    -1.9090 hc         1 Q5S       0.038700
    105 H43          2.6960    -1.8250    -1.4040 hc         1 Q5S       0.038700
    106 H44          4.1310     0.4620    -3.8170 hc         1 Q5S       0.028367
    107 H45          2.8870     1.7190    -3.7860 hc         1 Q5S       0.028367
    108 H46          4.0620     1.5870    -2.4780 hc         1 Q5S       0.028367
    109 H47          0.8000     0.8830    -3.2360 ha         1 Q5S       0.164000
    110 H48         -0.4980    -1.1390    -2.5500 hc         1 Q5S       0.049200
    111 H49          0.6500    -1.4990    -1.2780 hc         1 Q5S       0.049200
    112 H50          0.0380     0.6370    -0.1320 hc         1 Q5S       0.033200
    113 H51         -1.0550     1.0340    -1.4350 hc         1 Q5S       0.033200
    114 H52         -0.9310    -0.5740     1.8290 hc         1 Q5S       0.025367
    115 H53         -2.0920    -1.8710     1.5250 hc         1 Q5S       0.025367
    116 H54         -0.4510    -1.9680     0.8870 hc         1 Q5S       0.025367
    117 H55         -3.6780    -1.3000    -0.0800 ha         1 Q5S       0.225000
    118 H56         -4.5020     0.3620    -1.6510 hc         1 Q5S       0.061200
    119 H57         -2.8920     0.7380    -2.2400 hc         1 Q5S       0.061200
    120 H58         -2.7390    -1.5550    -3.2260 hc         1 Q5S       0.048200
    121 H59         -4.3260    -1.9330    -2.5780 hc         1 Q5S       0.048200
    122 H60         -2.6000    -0.4760    -5.4940 hc         1 Q5S       0.021033
    123 H61         -3.8970     0.6150    -5.9950 hc         1 Q5S       0.021033
    124 H62         -2.8840     1.0060    -4.6040 hc         1 Q5S       0.021033
    125 H63         -6.0050    -0.1430    -5.3990 ha         1 Q5S       0.144000
    126 H64         -7.5760    -1.4490    -4.1830 h1         1 Q5S       0.016200
    127 H65         -6.2930    -2.2820    -3.3170 h1         1 Q5S       0.016200
    128 H66         -9.8100     0.2350     2.8900 h2         1 Q5S       0.089700
    129 H67        -10.8610     2.5330     0.2570 h1         1 Q5S       0.095700
    130 H68        -12.8430     3.9570     0.6740 h1         1 Q5S      -0.001800
    131 H69        -12.9620     3.3190     2.3160 h1         1 Q5S      -0.001800
    132 H70        -13.3500     1.0830     1.2670 h1         1 Q5S       0.025700
    133 H71        -11.1830     0.1300    -0.6440 h1         1 Q5S       0.098700
    134 H72        -11.8760    -0.7700     2.1800 h1         1 Q5S       0.056700
    135 H73         -9.3230    -4.0620     0.5700 hc         1 Q5S       0.061033
    136 H74         -8.1200    -3.2200     1.5240 hc         1 Q5S       0.061033
    137 H75         -9.0690    -4.5250     2.2650 hc         1 Q5S       0.061033
    138 H76         -9.8100    -1.7120     0.2480 hn         1 Q5S       0.402500
    139 H79        -11.7170     5.2910     2.1740 ho         1 Q5S       0.471000
    140 H80        -13.9860     2.2310    -0.4790 ho         1 Q5S       0.479000
    141 H81        -13.3090    -0.7020    -0.9790 ho         1 Q5S       0.426000
    142 C61        -10.1090    -2.6590     2.0210 c          1 Q5S       0.621100
@<TRIPOS>BOND
     1     1    10 1   
     2     1    11 1   
     3     1    63 1   
     4     1    64 1   
     5     2     3 1   
     6     2    65 1   
     7     2    66 1   
     8     2    67 1   
     9     3     4 1   
    10     3     5 2   
    11     4    68 1   
    12     4    69 1   
    13     4    70 1   
    14     5     6 1   
    15     5    71 1   
    16     6     7 1   
    17     6    72 1   
    18     6    73 1   
    19     7     8 1   
    20     7    74 1   
    21     7    75 1   
    22     8     9 1   
    23     8    10 2   
    24     9    76 1   
    25     9    77 1   
    26     9    78 1   
    27    10    79 1   
    28    11    12 1   
    29    11    80 1   
    30    11    81 1   
    31    12    13 1   
    32    12    14 2   
    33    13    82 1   
    34    13    83 1   
    35    13    84 1   
    36    14    15 1   
    37    14    85 1   
    38    15    16 1   
    39    15    86 1   
    40    15    87 1   
    41    16    17 1   
    42    16    88 1   
    43    16    89 1   
    44    17    18 1   
    45    17    19 2   
    46    18    90 1   
    47    18    91 1   
    48    18    92 1   
    49    19    20 1   
    50    19    93 1   
    51    20    21 1   
    52    20    94 1   
    53    20    95 1   
    54    21    22 1   
    55    21    96 1   
    56    21    97 1   
    57    22    23 1   
    58    22    24 2   
    59    23    98 1   
    60    23    99 1   
    61    23   100 1   
    62    24    25 1   
    63    24   101 1   
    64    25    26 1   
    65    25   102 1   
    66    25   103 1   
    67    26    27 1   
    68    26   104 1   
    69    26   105 1   
    70    27    28 1   
    71    27    29 2   
    72    28   106 1   
    73    28   107 1   
    74    28   108 1   
    75    29    30 1   
    76    29   109 1   
    77    30    31 1   
    78    30   110 1   
    79    30   111 1   
    80    31    32 1   
    81    31   112 1   
    82    31   113 1   
    83    32    33 1   
    84    32    34 2   
    85    33   114 1   
    86    33   115 1   
    87    33   116 1   
    88    34    35 1   
    89    34   117 1   
    90    35    36 1   
    91    35   118 1   
    92    35   119 1   
    93    36    37 1   
    94    36   120 1   
    95    36   121 1   
    96    37    38 1   
    97    37    39 2   
    98    38   122 1   
    99    38   123 1   
   100    38   124 1   
   101    39    40 1   
   102    39   125 1   
   103    40    49 1   
   104    40   126 1   
   105    40   127 1   
   106    41    46 1   
   107    41    55 1   
   108    41    56 1   
   109    41   128 1   
   110    42    43 1   
   111    42    44 1   
   112    42    56 1   
   113    42   129 1   
   114    43    57 1   
   115    43   130 1   
   116    43   131 1   
   117    44    45 1   
   118    44    58 1   
   119    44   132 1   
   120    45    46 1   
   121    45    59 1   
   122    45   133 1   
   123    46    48 1   
   124    46   134 1   
   125    47   135 1   
   126    47   136 1   
   127    47   137 1   
   128    47   142 1   
   129    48   138 1   
   130    48   142 1   
   131    49    61 1   
   132    50    61 1   
   133    51    61 1   
   134    52    61 1   
   135    52    62 1   
   136    53    62 1   
   137    54    62 1   
   138    55    62 1   
   139    57   139 1   
   140    58   140 1   
   141    59   141 1   
   142    60   142 2   
@<TRIPOS>SUBSTRUCTURE
     1 Q5S         1 TEMP              0 ****  ****    0 ROOT
