@<TRIPOS>MOLECULE
Q5S
  142   142     1     0     0
SMALL
No Charge or Current Charge


@<TRIPOS>ATOM
      1 C10         14.5800     0.5310     0.1330 c3         1 Q5S      -0.042200
      2 C01         19.2840    -4.0310    -0.9610 c3         1 Q5S      -0.056400
      3 C02         18.4460    -2.7670    -1.0150 c2         1 Q5S      -0.114400
      4 C03         16.9830    -3.0600    -1.3150 c3         1 Q5S      -0.056400
      5 C04         18.9720    -1.5450    -0.8090 c2         1 Q5S      -0.222200
      6 C05         18.2550    -0.2070    -0.8540 c3         1 Q5S      -0.036200
      7 C06         17.6640     0.1840     0.5170 c3         1 Q5S      -0.037200
      8 C07         16.9210     1.5150     0.4870 c2         1 Q5S      -0.122400
      9 C08         17.8390     2.7140     0.6550 c3         1 Q5S      -0.051900
     10 C09         15.5890     1.6450     0.3400 c2         1 Q5S      -0.212200
     11 C11         13.9830     0.0250     1.4620 c3         1 Q5S      -0.033200
     12 C12         13.0130    -1.1330     1.2610 c2         1 Q5S      -0.126400
     13 C13         13.6870    -2.4900     1.3770 c3         1 Q5S      -0.051900
     14 C14         11.7000    -1.0060     0.9850 c2         1 Q5S      -0.208200
     15 C15         10.9090     0.2770     0.7950 c3         1 Q5S      -0.043200
     16 C16         10.4860     0.4810    -0.6740 c3         1 Q5S      -0.032200
     17 C17          9.7550     1.8010    -0.8910 c2         1 Q5S      -0.133400
     18 C18         10.6880     2.9280    -1.3030 c3         1 Q5S      -0.049900
     19 C19          8.4310     1.9900    -0.7260 c2         1 Q5S      -0.201200
     20 C20          7.3940     0.9730    -0.2800 c3         1 Q5S      -0.044200
     21 C21          6.8690     1.2710     1.1400 c3         1 Q5S      -0.029200
     22 C22          5.8660     0.2280     1.6200 c2         1 Q5S      -0.142400
     23 C23          6.5200    -0.8960     2.4070 c3         1 Q5S      -0.047900
     24 C24          4.5410     0.2560     1.3760 c2         1 Q5S      -0.191200
     25 C25          3.7630     1.2870     0.5730 c3         1 Q5S      -0.048200
     26 C26          3.2290     0.6990    -0.7510 c3         1 Q5S      -0.024200
     27 C27          2.4030     1.6940    -1.5650 c2         1 Q5S      -0.159400
     28 C28          3.2560     2.7320    -2.2780 c3         1 Q5S      -0.043900
     29 C29          1.0600     1.6750    -1.6840 c2         1 Q5S      -0.179200
     30 C30          0.0860     0.6840    -1.0700 c3         1 Q5S      -0.053200
     31 C31         -0.3400     1.0820     0.3570 c3         1 Q5S      -0.017200
     32 C32         -1.2950     0.0730     0.9840 c2         1 Q5S      -0.195400
     33 C33         -0.5730    -0.9870     1.8000 c3         1 Q5S      -0.033900
     34 C34         -2.6360     0.0760     0.8370 c2         1 Q5S      -0.138200
     35 C35         -3.4790     1.0440     0.0220 c3         1 Q5S      -0.048200
     36 C36         -4.0770     0.3720    -1.2320 c3         1 Q5S      -0.032200
     37 C37         -4.9180     1.3260    -2.0740 c2         1 Q5S      -0.128400
     38 C38         -4.0850     2.2080    -2.9900 c3         1 Q5S      -0.044900
     39 C39         -6.2630     1.3910    -2.0400 c2         1 Q5S      -0.201200
     40 C40         -7.2010     0.5660    -1.1820 c3         1 Q5S       0.255800
     41 C50        -12.1690    -0.9650     0.7420 c6         1 Q5S       0.430300
     42 C52        -13.0700    -0.0620    -1.3450 c6         1 Q5S       0.158300
     43 C53        -14.4360     0.1620    -2.0760 c3         1 Q5S       0.166600
     44 C55        -12.0560    -0.8840    -2.2140 c6         1 Q5S       0.096300
     45 C57        -10.7770    -1.1910    -1.3770 c6         1 Q5S       0.166300
     46 C59        -11.1900    -1.9050    -0.0580 c6         1 Q5S       0.083700
     47 C62         -8.9070    -3.9500     2.3080 c3         1 Q5S      -0.177100
     48 N60        -10.0700    -2.4790     0.7270 ns         1 Q5S      -0.490900
     49 O41         -7.1480     1.0890     0.1430 os         1 Q5S      -0.581400
     50 O43         -7.6600    -1.1750     1.1870 o          1 Q5S      -0.858500
     51 O44         -7.4630     0.8450     2.6370 o          1 Q5S      -0.858500
     52 O45         -9.3610     0.6690     0.9000 os         1 Q5S      -0.695800
     53 O47        -10.2610    -0.5970     2.9900 o          1 Q5S      -0.844500
     54 O48        -10.5630     1.8550     2.7870 o          1 Q5S      -0.844500
     55 O49        -11.6900     0.3400     1.1140 os         1 Q5S      -0.621400
     56 O51        -13.3350    -0.7470    -0.0840 os         1 Q5S      -0.465000
     57 O54        -15.4030     0.8730    -1.2830 oh         1 Q5S      -0.678000
     58 O56        -11.6910    -0.1970    -3.4310 oh         1 Q5S      -0.728000
     59 O58         -9.8750    -1.9950    -2.1580 oh         1 Q5S      -0.654000
     60 O63        -11.2370    -4.1490     1.7290 o          1 Q5S      -0.699100
     61 P42         -7.8980     0.2900     1.3210 p5         1 Q5S       1.483800
     62 P46        -10.4120     0.5590     2.0620 p5         1 Q5S       1.472800
     63 H1          13.7680     0.8830    -0.5150 hc         1 Q5S       0.046200
     64 H2          15.0380    -0.3120    -0.3960 hc         1 Q5S       0.046200
     65 H3          18.9240    -4.7120    -0.1810 hc         1 Q5S       0.038533
     66 H4          19.2500    -4.5690    -1.9170 hc         1 Q5S       0.038533
     67 H5          20.3370    -3.8130    -0.7460 hc         1 Q5S       0.038533
     68 H6          16.5610    -3.7470    -0.5710 hc         1 Q5S       0.038533
     69 H7          16.3580    -2.1620    -1.3100 hc         1 Q5S       0.038533
     70 H8          16.8710    -3.5300    -2.3000 hc         1 Q5S       0.038533
     71 H9          20.0380    -1.4490    -0.5950 ha         1 Q5S       0.162000
     72 H10         18.9540     0.5710    -1.1840 hc         1 Q5S       0.044700
     73 H11         17.4510    -0.2180    -1.6000 hc         1 Q5S       0.044700
     74 H12         16.9950    -0.6210     0.8420 hc         1 Q5S       0.044700
     75 H13         18.4670     0.2110     1.2640 hc         1 Q5S       0.044700
     76 H14         18.5840     2.7630    -0.1480 hc         1 Q5S       0.036367
     77 H15         17.2810     3.6580     0.6390 hc         1 Q5S       0.036367
     78 H16         18.3780     2.6700     1.6090 hc         1 Q5S       0.036367
     79 H17         15.1390     2.6400     0.3390 ha         1 Q5S       0.168000
     80 H18         14.7980    -0.2700     2.1360 hc         1 Q5S       0.044700
     81 H19         13.4890     0.8640     1.9650 hc         1 Q5S       0.044700
     82 H20         14.1150    -2.6350     2.3760 hc         1 Q5S       0.035700
     83 H21         12.9830    -3.3120     1.2000 hc         1 Q5S       0.035700
     84 H22         14.4990    -2.5920     0.6470 hc         1 Q5S       0.035700
     85 H23         11.0920    -1.9030     0.8540 ha         1 Q5S       0.167000
     86 H24         10.0120     0.2530     1.4260 hc         1 Q5S       0.049700
     87 H25         11.4780     1.1550     1.1170 hc         1 Q5S       0.049700
     88 H26         11.3740     0.4260    -1.3160 hc         1 Q5S       0.041700
     89 H27          9.8620    -0.3650    -0.9800 hc         1 Q5S       0.041700
     90 H28         11.1810     2.7040    -2.2560 hc         1 Q5S       0.034367
     91 H29         10.1520     3.8760    -1.4270 hc         1 Q5S       0.034367
     92 H30         11.4700     3.0890    -0.5510 hc         1 Q5S       0.034367
     93 H31          8.0060     2.9800    -0.9050 ha         1 Q5S       0.168000
     94 H32          6.5500     0.9780    -0.9810 hc         1 Q5S       0.048700
     95 H33          7.7920    -0.0460    -0.2960 hc         1 Q5S       0.048700
     96 H34          7.7180     1.3330     1.8320 hc         1 Q5S       0.042700
     97 H35          6.4240     2.2710     1.1470 hc         1 Q5S       0.042700
     98 H36          7.0040    -0.5140     3.3130 hc         1 Q5S       0.033033
     99 H37          5.7900    -1.6520     2.7200 hc         1 Q5S       0.033033
    100 H38          7.2840    -1.4060     1.8080 hc         1 Q5S       0.033033
    101 H39          3.9080    -0.5440     1.7650 ha         1 Q5S       0.170000
    102 H40          2.9190     1.6540     1.1690 hc         1 Q5S       0.053700
    103 H41          4.3760     2.1650     0.3490 hc         1 Q5S       0.053700
    104 H42          4.0730     0.3350    -1.3490 hc         1 Q5S       0.038700
    105 H43          2.6430    -0.1930    -0.5070 hc         1 Q5S       0.038700
    106 H44          3.9960     2.2550    -2.9320 hc         1 Q5S       0.028367
    107 H45          2.6480     3.3950    -2.9060 hc         1 Q5S       0.028367
    108 H46          3.7970     3.3670    -1.5680 hc         1 Q5S       0.028367
    109 H47          0.5650     2.4310    -2.2970 ha         1 Q5S       0.164000
    110 H48         -0.8080     0.6130    -1.7020 hc         1 Q5S       0.049200
    111 H49          0.5110    -0.3250    -1.0520 hc         1 Q5S       0.049200
    112 H50          0.5530     1.2010     0.9820 hc         1 Q5S       0.033200
    113 H51         -0.7940     2.0790     0.3210 hc         1 Q5S       0.033200
    114 H52         -0.0250    -0.5360     2.6370 hc         1 Q5S       0.025367
    115 H53         -1.2690    -1.7210     2.2220 hc         1 Q5S       0.025367
    116 H54          0.1500    -1.5370     1.1850 hc         1 Q5S       0.025367
    117 H55         -3.2330    -0.6960     1.3290 ha         1 Q5S       0.225000
    118 H56         -4.2960     1.4320     0.6420 hc         1 Q5S       0.061200
    119 H57         -2.8990     1.9180    -0.2890 hc         1 Q5S       0.061200
    120 H58         -3.2680    -0.0550    -1.8370 hc         1 Q5S       0.048200
    121 H59         -4.6760    -0.4840    -0.9020 hc         1 Q5S       0.048200
    122 H60         -3.4800     1.6050    -3.6770 hc         1 Q5S       0.021033
    123 H61         -4.7160     2.8650    -3.6010 hc         1 Q5S       0.021033
    124 H62         -3.4040     2.8500    -2.4190 hc         1 Q5S       0.021033
    125 H63         -6.7890     2.0990    -2.6780 ha         1 Q5S       0.144000
    126 H64         -8.2190     0.6420    -1.5840 h1         1 Q5S       0.016200
    127 H65         -6.9060    -0.4910    -1.2120 h1         1 Q5S       0.016200
    128 H66        -12.4820    -1.5010     1.6520 h2         1 Q5S       0.089700
    129 H67        -12.6400     0.9280    -1.1330 h1         1 Q5S       0.095700
    130 H68        -14.2490     0.7180    -3.0040 h1         1 Q5S      -0.001800
    131 H69        -14.8410    -0.8180    -2.3600 h1         1 Q5S      -0.001800
    132 H70        -12.5330    -1.8420    -2.4680 h1         1 Q5S       0.025700
    133 H71        -10.3030    -0.2310    -1.1350 h1         1 Q5S       0.098700
    134 H72        -11.7960    -2.7690    -0.3670 h1         1 Q5S       0.056700
    135 H73         -8.0860    -4.0300     1.5880 hc         1 Q5S       0.061033
    136 H74         -8.5870    -3.1140     2.9390 hc         1 Q5S       0.061033
    137 H75         -9.0300    -4.8650     2.8970 hc         1 Q5S       0.061033
    138 H76         -9.1550    -2.0210     0.7150 hn         1 Q5S       0.402500
    139 H79        -16.2400     0.8890    -1.8000 ho         1 Q5S       0.471000
    140 H80        -12.4410    -0.2930    -4.0630 ho         1 Q5S       0.479000
    141 H81         -9.9650    -1.6450    -3.0730 ho         1 Q5S       0.426000
    142 C61        -10.1820    -3.5470     1.5780 c          1 Q5S       0.621100
@<TRIPOS>BOND
     1     1    10 1   
     2     1    11 1   
     3     1    63 1   
     4     1    64 1   
     5     2     3 1   
     6     2    65 1   
     7     2    66 1   
     8     2    67 1   
     9     3     4 1   
    10     3     5 2   
    11     4    68 1   
    12     4    69 1   
    13     4    70 1   
    14     5     6 1   
    15     5    71 1   
    16     6     7 1   
    17     6    72 1   
    18     6    73 1   
    19     7     8 1   
    20     7    74 1   
    21     7    75 1   
    22     8     9 1   
    23     8    10 2   
    24     9    76 1   
    25     9    77 1   
    26     9    78 1   
    27    10    79 1   
    28    11    12 1   
    29    11    80 1   
    30    11    81 1   
    31    12    13 1   
    32    12    14 2   
    33    13    82 1   
    34    13    83 1   
    35    13    84 1   
    36    14    15 1   
    37    14    85 1   
    38    15    16 1   
    39    15    86 1   
    40    15    87 1   
    41    16    17 1   
    42    16    88 1   
    43    16    89 1   
    44    17    18 1   
    45    17    19 2   
    46    18    90 1   
    47    18    91 1   
    48    18    92 1   
    49    19    20 1   
    50    19    93 1   
    51    20    21 1   
    52    20    94 1   
    53    20    95 1   
    54    21    22 1   
    55    21    96 1   
    56    21    97 1   
    57    22    23 1   
    58    22    24 2   
    59    23    98 1   
    60    23    99 1   
    61    23   100 1   
    62    24    25 1   
    63    24   101 1   
    64    25    26 1   
    65    25   102 1   
    66    25   103 1   
    67    26    27 1   
    68    26   104 1   
    69    26   105 1   
    70    27    28 1   
    71    27    29 2   
    72    28   106 1   
    73    28   107 1   
    74    28   108 1   
    75    29    30 1   
    76    29   109 1   
    77    30    31 1   
    78    30   110 1   
    79    30   111 1   
    80    31    32 1   
    81    31   112 1   
    82    31   113 1   
    83    32    33 1   
    84    32    34 2   
    85    33   114 1   
    86    33   115 1   
    87    33   116 1   
    88    34    35 1   
    89    34   117 1   
    90    35    36 1   
    91    35   118 1   
    92    35   119 1   
    93    36    37 1   
    94    36   120 1   
    95    36   121 1   
    96    37    38 1   
    97    37    39 2   
    98    38   122 1   
    99    38   123 1   
   100    38   124 1   
   101    39    40 1   
   102    39   125 1   
   103    40    49 1   
   104    40   126 1   
   105    40   127 1   
   106    41    46 1   
   107    41    55 1   
   108    41    56 1   
   109    41   128 1   
   110    42    43 1   
   111    42    44 1   
   112    42    56 1   
   113    42   129 1   
   114    43    57 1   
   115    43   130 1   
   116    43   131 1   
   117    44    45 1   
   118    44    58 1   
   119    44   132 1   
   120    45    46 1   
   121    45    59 1   
   122    45   133 1   
   123    46    48 1   
   124    46   134 1   
   125    47   135 1   
   126    47   136 1   
   127    47   137 1   
   128    47   142 1   
   129    48   138 1   
   130    48   142 1   
   131    49    61 1   
   132    50    61 1   
   133    51    61 1   
   134    52    61 1   
   135    52    62 1   
   136    53    62 1   
   137    54    62 1   
   138    55    62 1   
   139    57   139 1   
   140    58   140 1   
   141    59   141 1   
   142    60   142 2   
@<TRIPOS>SUBSTRUCTURE
     1 Q5S         1 TEMP              0 ****  ****    0 ROOT
