@<TRIPOS>MOLECULE
Q5T
  147   148     1     0     0
SMALL
abcg2


@<TRIPOS>ATOM
      1 C11        -16.0120   -30.4000   -11.3260 c3         1 Q5T      -0.080400
      2 C12        -17.2950   -30.9230   -10.7060 c3         1 Q5T      -0.161400
      3 C13        -17.3150   -30.8090    -9.1950 c          1 Q5T       0.606100
      4 C16        -17.4080   -32.2370   -13.8150 c          1 Q5T       0.584100
      5 C4         -14.8520   -28.0460   -17.0960 c3         1 Q5T      -0.336100
      6 C6         -14.6880   -29.8540   -13.3580 c3         1 Q5T      -0.061400
      7 C5         -14.5190   -29.7370   -14.8630 c3         1 Q5T      -0.292400
      8 C8         -16.0150   -30.4220   -12.8570 c3         1 Q5T       0.103700
      9 S1         -15.6680   -28.5670   -15.6000 s6         1 Q5T       1.060000
     10 O2         -16.8990   -29.2800   -15.9640 o          1 Q5T      -0.505500
     11 O3         -15.8050   -27.4040   -14.7230 o          1 Q5T      -0.505500
     12 N10        -16.2290   -31.7620   -13.3740 ns         1 Q5T      -0.505900
     13 N14        -18.5420   -30.8500    -8.6480 nt         1 Q5T      -0.614000
     14 O15        -16.2980   -30.7010    -8.5270 o          1 Q5T      -0.611100
     15 O18        -18.4180   -31.5620   -13.9400 o          1 Q5T      -0.586100
     16 C19        -17.4330   -33.7320   -14.1430 c3         1 Q5T       0.039700
     17 C21        -17.6710   -33.9740   -15.6360 c3         1 Q5T      -0.090400
     18 C22        -17.7470   -35.4570   -16.0170 c3         1 Q5T      -0.055700
     19 C23        -16.4420   -36.1930   -15.7260 c3         1 Q5T      -0.088600
     20 C24        -18.1430   -35.6060   -17.4810 c3         1 Q5T      -0.088600
     21 N25        -18.4860   -34.3470   -13.3680 ns         1 Q5T      -0.481900
     22 C26        -18.2880   -34.9540   -12.1880 c          1 Q5T       0.591100
     23 O27        -17.1950   -35.0230   -11.6460 o          1 Q5T      -0.625100
     24 C28        -19.5420   -35.5800   -11.5680 c3         1 Q5T       0.050700
     25 C29        -20.1800   -34.6930   -10.4690 c3         1 Q5T      -0.051000
     26 C30        -20.5370   -33.3340   -11.0750 c3         1 Q5T      -0.089433
     27 C31        -19.2580   -34.4780    -9.2660 c3         1 Q5T      -0.089433
     28 C32        -21.4780   -35.3570    -9.9980 c3         1 Q5T      -0.089433
     29 N33        -19.2140   -36.8930   -11.0690 ns         1 Q5T      -0.489900
     30 C34        -18.7990   -37.8720   -11.8900 c          1 Q5T       0.594100
     31 O35        -18.7640   -37.7490   -13.1030 o          1 Q5T      -0.591100
     32 C36        -18.3210   -39.1390   -11.1810 c3         1 Q5T       0.042700
     33 C37        -16.8820   -38.9600   -10.6790 c3         1 Q5T      -0.082400
     34 C38        -15.8590   -38.5470   -11.7310 c3         1 Q5T      -0.095100
     35 N39        -18.4180   -40.2700   -12.0630 ns         1 Q5T      -0.491900
     36 C40        -19.6050   -40.7300   -12.4920 c          1 Q5T       0.607100
     37 O41        -20.6630   -40.2400   -12.1240 o          1 Q5T      -0.612100
     38 C42        -19.5410   -41.9140   -13.4320 c3         1 Q5T      -0.156400
     39 C43        -20.6090   -41.8210   -14.5070 c3         1 Q5T       0.169600
     40 O44        -20.4500   -42.9090   -15.3800 os         1 Q5T      -0.450000
     41 C45        -21.3910   -42.9200   -16.4230 c3         1 Q5T       0.167600
     42 C46        -21.0200   -43.9890   -17.4190 c3         1 Q5T       0.158600
     43 O47        -19.8100   -43.6330   -18.0400 os         1 Q5T      -0.425000
     44 C48        -19.3460   -44.5540   -18.9950 c3         1 Q5T       0.138600
     45 C50        -18.7360   -45.8130   -18.3960 c3         1 Q5T       0.125600
     46 O51        -17.7290   -45.5640   -17.4450 os         1 Q5T      -0.422000
     47 C52        -16.4010   -45.6260   -17.8960 c3         1 Q5T       0.164600
     48 C53        -15.9400   -44.4370   -18.7160 c3         1 Q5T       0.122600
     49 O54        -16.1220   -43.2650   -17.9620 os         1 Q5T      -0.420000
     50 C55        -15.6010   -42.1000   -18.5450 c3         1 Q5T       0.135600
     51 C56        -16.5220   -41.5030   -19.6110 c3         1 Q5T       0.065000
     52 N57        -15.9600   -40.2910   -20.1600 ns         1 Q5T      -0.508900
     53 C58        -16.0700   -39.0930   -19.5580 c          1 Q5T       0.592100
     54 O59        -16.7350   -38.9250   -18.5440 o          1 Q5T      -0.586100
     55 C60        -15.2830   -37.9670   -20.1880 c3         1 Q5T      -0.161400
     56 C61        -14.0850   -37.5950   -19.3130 c3         1 Q5T      -0.073400
     57 C62        -13.1480   -36.5870   -19.9750 c3         1 Q5T      -0.079400
     58 C63        -13.7870   -35.2550   -20.3580 c3         1 Q5T      -0.070400
     59 C69        -14.4640   -34.5300   -19.2090 c5         1 Q5T       0.136600
     60 C74        -15.0630   -33.1560   -19.5770 c5         1 Q5T       0.099700
     61 C77        -14.7920   -32.1190   -18.4420 c5         1 Q5T       0.146900
     62 C79        -14.2840   -32.8920   -17.2520 c2         1 Q5T      -0.843200
     63 S81        -13.3220   -34.1650   -17.8270 s4         1 Q5T       0.124700
     64 N82        -16.4990   -33.1720   -19.6400 ns         1 Q5T      -0.522900
     65 N83        -16.0990   -31.5090   -18.2590 ns         1 Q5T      -0.486900
     66 C84        -17.0910   -32.2190   -18.8660 c          1 Q5T       0.601000
     67 O85        -18.2920   -32.0270   -18.7570 o          1 Q5T      -0.561000
     68 H1         -15.1570   -30.9750   -10.9610 hc         1 Q5T       0.058700
     69 H2         -15.8490   -29.3660   -11.0100 hc         1 Q5T       0.058700
     70 H3         -18.1620   -30.4050   -11.1240 hc         1 Q5T       0.068700
     71 H4         -17.4290   -31.9810   -10.9520 hc         1 Q5T       0.068700
     72 H5         -15.5410   -27.3920   -17.6280 h1         1 Q5T       0.102700
     73 H6         -13.9430   -27.5080   -16.8390 h1         1 Q5T       0.102700
     74 H7         -14.6130   -28.9120   -17.7100 h1         1 Q5T       0.102700
     75 H8         -13.8710   -30.4860   -12.9980 hc         1 Q5T       0.062200
     76 H9         -14.5300   -28.8760   -12.9010 hc         1 Q5T       0.062200
     77 H10        -14.6720   -30.6830   -15.3810 h1         1 Q5T       0.095200
     78 H11        -13.5140   -29.3770   -15.0960 h1         1 Q5T       0.095200
     79 H12        -16.8400   -29.8030   -13.2130 h1         1 Q5T       0.090700
     80 H13        -15.4790   -32.4230   -13.2350 hn         1 Q5T       0.313500
     81 H14        -18.6560   -30.8550    -7.6480 hn         1 Q5T       0.311500
     82 H15        -19.3690   -30.9690    -9.2080 hn         1 Q5T       0.311500
     83 H16        -16.4920   -34.1990   -13.8490 h1         1 Q5T       0.077700
     84 H17        -16.8610   -33.4940   -16.1990 hc         1 Q5T       0.069700
     85 H18        -18.5990   -33.4730   -15.9310 hc         1 Q5T       0.069700
     86 H19        -18.5330   -35.9240   -15.4160 hc         1 Q5T       0.060700
     87 H20        -16.2300   -36.2460   -14.6580 hc         1 Q5T       0.032867
     88 H21        -16.4790   -37.2170   -16.1000 hc         1 Q5T       0.032867
     89 H22        -15.5980   -35.6920   -16.2050 hc         1 Q5T       0.032867
     90 H23        -19.1070   -35.1360   -17.6820 hc         1 Q5T       0.032867
     91 H24        -17.4090   -35.1470   -18.1450 hc         1 Q5T       0.032867
     92 H25        -18.2200   -36.6580   -17.7590 hc         1 Q5T       0.032867
     93 H26        -19.4160   -34.3410   -13.7590 hn         1 Q5T       0.330500
     94 H27        -20.2990   -35.6940   -12.3520 h1         1 Q5T       0.074700
     95 H28        -19.6590   -32.7640   -11.3770 hc         1 Q5T       0.040144
     96 H29        -21.1820   -33.4420   -11.9500 hc         1 Q5T       0.040144
     97 H30        -21.0760   -32.7340   -10.3410 hc         1 Q5T       0.040144
     98 H31        -18.3310   -33.9760    -9.5410 hc         1 Q5T       0.040144
     99 H32        -19.7660   -33.8520    -8.5320 hc         1 Q5T       0.040144
    100 H33        -18.9960   -35.4100    -8.7600 hc         1 Q5T       0.040144
    101 H34        -21.9810   -34.7110    -9.2770 hc         1 Q5T       0.040144
    102 H35        -22.1640   -35.5240   -10.8320 hc         1 Q5T       0.040144
    103 H36        -21.3070   -36.3170    -9.5090 hc         1 Q5T       0.040144
    104 H37        -19.1780   -37.0450   -10.0740 hn         1 Q5T       0.321500
    105 H38        -18.9540   -39.3140   -10.3060 h1         1 Q5T       0.068700
    106 H39        -16.5800   -39.9010   -10.2130 hc         1 Q5T       0.048700
    107 H40        -16.8950   -38.2210    -9.8760 hc         1 Q5T       0.048700
    108 H41        -14.8620   -38.5430   -11.2920 hc         1 Q5T       0.043700
    109 H42        -15.8300   -39.2270   -12.5840 hc         1 Q5T       0.043700
    110 H43        -16.0500   -37.5450   -12.1120 hc         1 Q5T       0.043700
    111 H44        -17.5710   -40.6810   -12.4230 hn         1 Q5T       0.325500
    112 H45        -19.6880   -42.8240   -12.8420 hc         1 Q5T       0.070700
    113 H46        -18.5550   -41.9920   -13.8950 hc         1 Q5T       0.070700
    114 H47        -20.5120   -40.8720   -15.0540 h1         1 Q5T       0.037700
    115 H48        -21.6070   -41.8250   -14.0510 h1         1 Q5T       0.037700
    116 H49        -21.4350   -41.9430   -16.9260 h1         1 Q5T       0.030200
    117 H50        -22.4010   -43.1270   -16.0430 h1         1 Q5T       0.030200
    118 H51        -21.8310   -44.0740   -18.1570 h1         1 Q5T       0.026200
    119 H52        -20.9530   -44.9580   -16.9080 h1         1 Q5T       0.026200
    120 H53        -18.6190   -44.0230   -19.6120 h1         1 Q5T       0.038200
    121 H54        -20.1570   -44.8710   -19.6680 h1         1 Q5T       0.038200
    122 H55        -19.5130   -46.3930   -17.8880 h1         1 Q5T       0.039200
    123 H56        -18.3700   -46.4390   -19.2210 h1         1 Q5T       0.039200
    124 H57        -16.2210   -46.5310   -18.4920 h1         1 Q5T       0.048200
    125 H58        -15.7810   -45.7010   -16.9990 h1         1 Q5T       0.048200
    126 H59        -16.4720   -44.3990   -19.6760 h1         1 Q5T       0.016700
    127 H60        -14.8790   -44.5910   -18.9570 h1         1 Q5T       0.016700
    128 H61        -14.6080   -42.2790   -18.9800 h1         1 Q5T       0.047200
    129 H62        -15.4760   -41.3730   -17.7400 h1         1 Q5T       0.047200
    130 H63        -17.5020   -41.2920   -19.1810 h1         1 Q5T       0.066200
    131 H64        -16.6720   -42.2030   -20.4330 h1         1 Q5T       0.066200
    132 H65        -15.3630   -40.3730   -20.9650 hn         1 Q5T       0.307500
    133 H66        -15.9530   -37.1120   -20.2980 hc         1 Q5T       0.059200
    134 H67        -14.9350   -38.2350   -21.1890 hc         1 Q5T       0.059200
    135 H68        -13.5090   -38.4980   -19.0920 hc         1 Q5T       0.054700
    136 H69        -14.4380   -37.2210   -18.3480 hc         1 Q5T       0.054700
    137 H70        -12.7260   -37.0330   -20.8800 hc         1 Q5T       0.045700
    138 H71        -12.2980   -36.4100   -19.3100 hc         1 Q5T       0.045700
    139 H72        -14.5440   -35.4050   -21.1330 hc         1 Q5T       0.054200
    140 H73        -13.0320   -34.6020   -20.8050 hc         1 Q5T       0.054200
    141 H74        -15.2370   -35.1490   -18.7520 h1         1 Q5T       0.129700
    142 H75        -14.6250   -32.8250   -20.5230 h1         1 Q5T       0.051700
    143 H76        -14.0890   -31.3570   -18.8030 h1         1 Q5T       0.036700
    144 H77        -13.8430   -32.3510   -16.4200 h4         1 Q5T       0.179000
    145 H78        -17.0010   -33.6210   -20.3880 hn         1 Q5T       0.332500
    146 H79        -16.3170   -31.0110   -17.4060 hn         1 Q5T       0.343500
    147 H80        -12.3000   -33.7580   -18.6690 hs         1 Q5T       0.169000
@<TRIPOS>BOND
     1     1     2 1   
     2     1     8 1   
     3     1    68 1   
     4     1    69 1   
     5     2     3 1   
     6     2    70 1   
     7     2    71 1   
     8     3    13 1   
     9     3    14 2   
    10     4    12 1   
    11     4    15 2   
    12     4    16 1   
    13     5     9 1   
    14     5    72 1   
    15     5    73 1   
    16     5    74 1   
    17     6     7 1   
    18     6     8 1   
    19     6    75 1   
    20     6    76 1   
    21     7     9 1   
    22     7    77 1   
    23     7    78 1   
    24     8    12 1   
    25     8    79 1   
    26     9    10 2   
    27     9    11 2   
    28    12    80 1   
    29    13    81 1   
    30    13    82 1   
    31    16    17 1   
    32    16    21 1   
    33    16    83 1   
    34    17    18 1   
    35    17    84 1   
    36    17    85 1   
    37    18    19 1   
    38    18    20 1   
    39    18    86 1   
    40    19    87 1   
    41    19    88 1   
    42    19    89 1   
    43    20    90 1   
    44    20    91 1   
    45    20    92 1   
    46    21    22 1   
    47    21    93 1   
    48    22    23 2   
    49    22    24 1   
    50    24    25 1   
    51    24    29 1   
    52    24    94 1   
    53    25    26 1   
    54    25    27 1   
    55    25    28 1   
    56    26    95 1   
    57    26    96 1   
    58    26    97 1   
    59    27    98 1   
    60    27    99 1   
    61    27   100 1   
    62    28   101 1   
    63    28   102 1   
    64    28   103 1   
    65    29    30 1   
    66    29   104 1   
    67    30    31 2   
    68    30    32 1   
    69    32    33 1   
    70    32    35 1   
    71    32   105 1   
    72    33    34 1   
    73    33   106 1   
    74    33   107 1   
    75    34   108 1   
    76    34   109 1   
    77    34   110 1   
    78    35    36 1   
    79    35   111 1   
    80    36    37 2   
    81    36    38 1   
    82    38    39 1   
    83    38   112 1   
    84    38   113 1   
    85    39    40 1   
    86    39   114 1   
    87    39   115 1   
    88    40    41 1   
    89    41    42 1   
    90    41   116 1   
    91    41   117 1   
    92    42    43 1   
    93    42   118 1   
    94    42   119 1   
    95    43    44 1   
    96    44    45 1   
    97    44   120 1   
    98    44   121 1   
    99    45    46 1   
   100    45   122 1   
   101    45   123 1   
   102    46    47 1   
   103    47    48 1   
   104    47   124 1   
   105    47   125 1   
   106    48    49 1   
   107    48   126 1   
   108    48   127 1   
   109    49    50 1   
   110    50    51 1   
   111    50   128 1   
   112    50   129 1   
   113    51    52 1   
   114    51   130 1   
   115    51   131 1   
   116    52    53 1   
   117    52   132 1   
   118    53    54 2   
   119    53    55 1   
   120    55    56 1   
   121    55   133 1   
   122    55   134 1   
   123    56    57 1   
   124    56   135 1   
   125    56   136 1   
   126    57    58 1   
   127    57   137 1   
   128    57   138 1   
   129    58    59 1   
   130    58   139 1   
   131    58   140 1   
   132    59    60 1   
   133    59    63 1   
   134    59   141 1   
   135    60    61 1   
   136    60    64 1   
   137    60   142 1   
   138    61    62 1   
   139    61    65 1   
   140    61   143 1   
   141    62    63 2   
   142    62   144 1   
   143    63   147 1   
   144    64    66 1   
   145    64   145 1   
   146    65    66 1   
   147    65   146 1   
   148    66    67 2   
@<TRIPOS>SUBSTRUCTURE
     1 Q5T         1 TEMP              0 ****  ****    0 ROOT
