@<TRIPOS>MOLECULE
Q5T
  147   148     1     0     0
SMALL
No Charge or Current Charge


@<TRIPOS>ATOM
      1 C11        -15.6830   -29.5050   -11.0310 c3         1 Q5T      -0.080400
      2 C12        -16.9860   -29.9850   -10.3370 c3         1 Q5T      -0.161400
      3 C13        -17.0400   -29.5330    -8.8760 c          1 Q5T       0.606100
      4 C16        -16.8890   -31.9020   -13.1110 c          1 Q5T       0.584100
      5 C4         -14.5890   -28.6130   -17.3530 c3         1 Q5T      -0.336100
      6 C6         -14.3070   -29.2270   -13.1760 c3         1 Q5T      -0.061400
      7 C5         -14.0960   -29.4990   -14.6940 c3         1 Q5T      -0.292400
      8 C8         -15.6040   -29.8050   -12.5520 c3         1 Q5T       0.103700
      9 S1         -15.3990   -28.8570   -15.7750 s6         1 Q5T       1.060000
     10 O2         -16.4080   -29.9090   -15.9440 o          1 Q5T      -0.505500
     11 O3         -15.8040   -27.5370   -15.2790 o          1 Q5T      -0.505500
     12 N10        -15.7120   -31.2420   -12.8160 ns         1 Q5T      -0.505900
     13 N14        -17.7450   -28.4100    -8.6260 nt         1 Q5T      -0.614000
     14 O15        -16.4880   -30.1300    -7.9690 o          1 Q5T      -0.611100
     15 O18        -17.9580   -31.3140   -13.2170 o          1 Q5T      -0.586100
     16 C19        -16.7540   -33.4430   -13.2530 c3         1 Q5T       0.039700
     17 C21        -16.2760   -33.8390   -14.6760 c3         1 Q5T      -0.090400
     18 C22        -16.0350   -35.3590   -14.9050 c3         1 Q5T      -0.055700
     19 C23        -14.9020   -35.9240   -14.0150 c3         1 Q5T      -0.088600
     20 C24        -15.7530   -35.6540   -16.3940 c3         1 Q5T      -0.088600
     21 N25        -18.0500   -34.0830   -12.9400 ns         1 Q5T      -0.481900
     22 C26        -18.2570   -35.0200   -11.9480 c          1 Q5T       0.591100
     23 O27        -17.3390   -35.4250   -11.2440 o          1 Q5T      -0.625100
     24 C28        -19.7290   -35.5290   -11.8140 c3         1 Q5T       0.050700
     25 C29        -20.6420   -34.6290   -10.8990 c3         1 Q5T      -0.051000
     26 C30        -20.7020   -33.1740   -11.4400 c3         1 Q5T      -0.089433
     27 C31        -20.1140   -34.5880    -9.4370 c3         1 Q5T      -0.089433
     28 C32        -22.0910   -35.1950   -10.8940 c3         1 Q5T      -0.089433
     29 N33        -19.7190   -36.9330   -11.3430 ns         1 Q5T      -0.489900
     30 C34        -19.4810   -38.0230   -12.1510 c          1 Q5T       0.594100
     31 O35        -19.2780   -37.8980   -13.3530 o          1 Q5T      -0.591100
     32 C36        -19.4910   -39.4020   -11.4260 c3         1 Q5T       0.042700
     33 C37        -18.4200   -39.5010   -10.3050 c3         1 Q5T      -0.082400
     34 C38        -16.9620   -39.3540   -10.7980 c3         1 Q5T      -0.095100
     35 N39        -19.3450   -40.5020   -12.4050 ns         1 Q5T      -0.491900
     36 C40        -19.7910   -41.7910   -12.2230 c          1 Q5T       0.607100
     37 O41        -20.3780   -42.1450   -11.2100 o          1 Q5T      -0.612100
     38 C42        -19.4750   -42.7480   -13.3650 c3         1 Q5T      -0.156400
     39 C43        -20.7260   -42.9820   -14.2220 c3         1 Q5T       0.169600
     40 O44        -20.3360   -43.8270   -15.3130 os         1 Q5T      -0.450000
     41 C45        -21.3560   -44.0350   -16.3110 c3         1 Q5T       0.167600
     42 C46        -20.7710   -44.8980   -17.4550 c3         1 Q5T       0.158600
     43 O47        -19.7460   -44.1380   -18.1330 os         1 Q5T      -0.425000
     44 C48        -19.1820   -44.7300   -19.3270 c3         1 Q5T       0.138600
     45 C50        -18.4700   -46.0820   -19.0220 c3         1 Q5T       0.125600
     46 O51        -17.4350   -45.9150   -18.0220 os         1 Q5T      -0.422000
     47 C52        -16.0610   -45.8600   -18.4850 c3         1 Q5T       0.164600
     48 C53        -15.7480   -44.5290   -19.2160 c3         1 Q5T       0.122600
     49 O54        -15.8420   -43.4440   -18.2670 os         1 Q5T      -0.420000
     50 C55        -15.5170   -42.1310   -18.7680 c3         1 Q5T       0.135600
     51 C56        -16.6690   -41.6060   -19.6620 c3         1 Q5T       0.065000
     52 N57        -16.3940   -40.2730   -20.2180 ns         1 Q5T      -0.508900
     53 C58        -16.3640   -39.1030   -19.4900 c          1 Q5T       0.592100
     54 O59        -16.6340   -39.0640   -18.2990 o          1 Q5T      -0.586100
     55 C60        -15.9980   -37.8540   -20.2970 c3         1 Q5T      -0.161400
     56 C61        -14.5550   -37.3830   -19.9870 c3         1 Q5T      -0.073400
     57 C62        -13.9860   -36.3700   -21.0110 c3         1 Q5T      -0.079400
     58 C63        -14.7840   -35.0490   -21.1630 c3         1 Q5T      -0.070400
     59 C69        -14.9030   -34.1730   -19.8890 c5         1 Q5T       0.136600
     60 C74        -15.7290   -32.8430   -20.1210 c5         1 Q5T       0.099700
     61 C77        -15.3850   -31.8150   -18.9660 c5         1 Q5T       0.146900
     62 C79        -14.1690   -32.2600   -18.2060 c2         1 Q5T      -0.843200
     63 S81        -13.2450   -33.6820   -19.1660 s4         1 Q5T       0.124700
     64 N82        -17.1110   -33.1920   -19.7770 ns         1 Q5T      -0.522900
     65 N83        -16.4180   -32.0750   -17.9980 ns         1 Q5T      -0.486900
     66 C84        -17.4450   -32.7820   -18.5260 c          1 Q5T       0.601000
     67 O85        -18.5050   -33.0060   -17.9750 o          1 Q5T      -0.561000
     68 H1         -14.8220   -29.9640   -10.5280 hc         1 Q5T       0.058700
     69 H2         -15.5880   -28.4220   -10.8850 hc         1 Q5T       0.058700
     70 H3         -17.8320   -29.5550   -10.8840 hc         1 Q5T       0.068700
     71 H4         -17.0280   -31.0800   -10.3660 hc         1 Q5T       0.068700
     72 H5         -15.3550   -28.3150   -18.0760 h1         1 Q5T       0.102700
     73 H6         -13.8380   -27.8280   -17.2250 h1         1 Q5T       0.102700
     74 H7         -14.1230   -29.5610   -17.6370 h1         1 Q5T       0.102700
     75 H8         -13.4450   -29.6350   -12.6340 hc         1 Q5T       0.062200
     76 H9         -14.2860   -28.1430   -13.0030 hc         1 Q5T       0.062200
     77 H10        -14.0260   -30.5730   -14.8990 h1         1 Q5T       0.095200
     78 H11        -13.1680   -29.0180   -15.0240 h1         1 Q5T       0.095200
     79 H12        -16.4570   -29.3000   -13.0270 h1         1 Q5T       0.090700
     80 H13        -14.8750   -31.8080   -12.7410 hn         1 Q5T       0.313500
     81 H14        -17.8110   -28.0700    -7.6780 hn         1 Q5T       0.311500
     82 H15        -18.1990   -27.9180    -9.3810 hn         1 Q5T       0.311500
     83 H16        -16.0020   -33.7590   -12.5180 h1         1 Q5T       0.077700
     84 H17        -15.3520   -33.2950   -14.9080 hc         1 Q5T       0.069700
     85 H18        -17.0240   -33.4870   -15.3970 hc         1 Q5T       0.069700
     86 H19        -16.9560   -35.8960   -14.6450 hc         1 Q5T       0.060700
     87 H20        -15.1430   -35.8260   -12.9510 hc         1 Q5T       0.032867
     88 H21        -14.7460   -36.9900   -14.2200 hc         1 Q5T       0.032867
     89 H22        -13.9580   -35.3980   -14.2040 hc         1 Q5T       0.032867
     90 H23        -16.5870   -35.3150   -17.0210 hc         1 Q5T       0.032867
     91 H24        -14.8410   -35.1440   -16.7260 hc         1 Q5T       0.032867
     92 H25        -15.6250   -36.7310   -16.5600 hc         1 Q5T       0.032867
     93 H26        -18.8660   -33.7770   -13.4570 hn         1 Q5T       0.330500
     94 H27        -20.1560   -35.5190   -12.8260 h1         1 Q5T       0.074700
     95 H28        -19.7320   -32.6700   -11.3480 hc         1 Q5T       0.040144
     96 H29        -21.0030   -33.1560   -12.4950 hc         1 Q5T       0.040144
     97 H30        -21.4280   -32.5760   -10.8760 hc         1 Q5T       0.040144
     98 H31        -19.1000   -34.1720    -9.3900 hc         1 Q5T       0.040144
     99 H32        -20.7580   -33.9580    -8.8100 hc         1 Q5T       0.040144
    100 H33        -20.0920   -35.5870    -8.9860 hc         1 Q5T       0.040144
    101 H34        -22.7610   -34.5520   -10.3100 hc         1 Q5T       0.040144
    102 H35        -22.4890   -35.2570   -11.9140 hc         1 Q5T       0.040144
    103 H36        -22.1330   -36.1980   -10.4520 hc         1 Q5T       0.040144
    104 H37        -19.8550   -37.1130   -10.3560 hn         1 Q5T       0.321500
    105 H38        -20.4800   -39.4920   -10.9590 h1         1 Q5T       0.068700
    106 H39        -18.5230   -40.4670    -9.7950 hc         1 Q5T       0.048700
    107 H40        -18.6140   -38.7350    -9.5440 hc         1 Q5T       0.048700
    108 H41        -16.2660   -39.4330    -9.9550 hc         1 Q5T       0.043700
    109 H42        -16.7100   -40.1410   -11.5200 hc         1 Q5T       0.043700
    110 H43        -16.8040   -38.3810   -11.2770 hc         1 Q5T       0.043700
    111 H44        -18.8920   -40.2940   -13.2880 hn         1 Q5T       0.325500
    112 H45        -19.1510   -43.7090   -12.9500 hc         1 Q5T       0.070700
    113 H46        -18.6940   -42.3250   -14.0080 hc         1 Q5T       0.070700
    114 H47        -21.1000   -42.0180   -14.5920 h1         1 Q5T       0.037700
    115 H48        -21.5140   -43.4560   -13.6200 h1         1 Q5T       0.037700
    116 H49        -21.7050   -43.0780   -16.7210 h1         1 Q5T       0.030200
    117 H50        -22.2180   -44.5550   -15.8740 h1         1 Q5T       0.030200
    118 H51        -21.5800   -45.1580   -18.1510 h1         1 Q5T       0.026200
    119 H52        -20.3680   -45.8270   -17.0330 h1         1 Q5T       0.026200
    120 H53        -18.4740   -44.0310   -19.7860 h1         1 Q5T       0.038200
    121 H54        -19.9720   -44.9110   -20.0670 h1         1 Q5T       0.038200
    122 H55        -19.2150   -46.8080   -18.6720 h1         1 Q5T       0.039200
    123 H56        -18.0540   -46.4860   -19.9550 h1         1 Q5T       0.039200
    124 H57        -15.8500   -46.6990   -19.1610 h1         1 Q5T       0.048200
    125 H58        -15.3770   -45.9540   -17.6320 h1         1 Q5T       0.048200
    126 H59        -16.4230   -44.3950   -20.0670 h1         1 Q5T       0.016700
    127 H60        -14.7260   -44.5870   -19.6140 h1         1 Q5T       0.016700
    128 H61        -14.5800   -42.1510   -19.3410 h1         1 Q5T       0.047200
    129 H62        -15.3780   -41.4390   -17.9280 h1         1 Q5T       0.047200
    130 H63        -17.5940   -41.5630   -19.0720 h1         1 Q5T       0.066200
    131 H64        -16.8330   -42.2930   -20.5010 h1         1 Q5T       0.066200
    132 H65        -16.1680   -40.1990   -21.2030 hn         1 Q5T       0.307500
    133 H66        -16.6960   -37.0480   -20.0380 hc         1 Q5T       0.059200
    134 H67        -16.0680   -38.0760   -21.3690 hc         1 Q5T       0.059200
    135 H68        -13.8940   -38.2590   -19.9820 hc         1 Q5T       0.054700
    136 H69        -14.5120   -36.9630   -18.9750 hc         1 Q5T       0.054700
    137 H70        -13.9370   -36.8580   -21.9930 hc         1 Q5T       0.045700
    138 H71        -12.9480   -36.1400   -20.7400 hc         1 Q5T       0.045700
    139 H72        -15.7880   -35.2840   -21.5360 hc         1 Q5T       0.054200
    140 H73        -14.3080   -34.4590   -21.9570 hc         1 Q5T       0.054200
    141 H74        -15.3730   -34.7670   -19.0970 h1         1 Q5T       0.129700
    142 H75        -15.6010   -32.4140   -21.1230 h1         1 Q5T       0.051700
    143 H76        -15.3640   -30.7690   -19.3020 h1         1 Q5T       0.036700
    144 H77        -13.9160   -32.0610   -17.1660 h4         1 Q5T       0.179000
    145 H78        -17.7730   -33.7210   -20.3310 hn         1 Q5T       0.332500
    146 H79        -16.5370   -31.5980   -17.1140 hn         1 Q5T       0.343500
    147 H80        -13.1770   -33.0440   -20.4070 hs         1 Q5T       0.169000
@<TRIPOS>BOND
     1     1     2 1   
     2     1     8 1   
     3     1    68 1   
     4     1    69 1   
     5     2     3 1   
     6     2    70 1   
     7     2    71 1   
     8     3    13 1   
     9     3    14 2   
    10     4    12 1   
    11     4    15 2   
    12     4    16 1   
    13     5     9 1   
    14     5    72 1   
    15     5    73 1   
    16     5    74 1   
    17     6     7 1   
    18     6     8 1   
    19     6    75 1   
    20     6    76 1   
    21     7     9 1   
    22     7    77 1   
    23     7    78 1   
    24     8    12 1   
    25     8    79 1   
    26     9    10 2   
    27     9    11 2   
    28    12    80 1   
    29    13    81 1   
    30    13    82 1   
    31    16    17 1   
    32    16    21 1   
    33    16    83 1   
    34    17    18 1   
    35    17    84 1   
    36    17    85 1   
    37    18    19 1   
    38    18    20 1   
    39    18    86 1   
    40    19    87 1   
    41    19    88 1   
    42    19    89 1   
    43    20    90 1   
    44    20    91 1   
    45    20    92 1   
    46    21    22 1   
    47    21    93 1   
    48    22    23 2   
    49    22    24 1   
    50    24    25 1   
    51    24    29 1   
    52    24    94 1   
    53    25    26 1   
    54    25    27 1   
    55    25    28 1   
    56    26    95 1   
    57    26    96 1   
    58    26    97 1   
    59    27    98 1   
    60    27    99 1   
    61    27   100 1   
    62    28   101 1   
    63    28   102 1   
    64    28   103 1   
    65    29    30 1   
    66    29   104 1   
    67    30    31 2   
    68    30    32 1   
    69    32    33 1   
    70    32    35 1   
    71    32   105 1   
    72    33    34 1   
    73    33   106 1   
    74    33   107 1   
    75    34   108 1   
    76    34   109 1   
    77    34   110 1   
    78    35    36 1   
    79    35   111 1   
    80    36    37 2   
    81    36    38 1   
    82    38    39 1   
    83    38   112 1   
    84    38   113 1   
    85    39    40 1   
    86    39   114 1   
    87    39   115 1   
    88    40    41 1   
    89    41    42 1   
    90    41   116 1   
    91    41   117 1   
    92    42    43 1   
    93    42   118 1   
    94    42   119 1   
    95    43    44 1   
    96    44    45 1   
    97    44   120 1   
    98    44   121 1   
    99    45    46 1   
   100    45   122 1   
   101    45   123 1   
   102    46    47 1   
   103    47    48 1   
   104    47   124 1   
   105    47   125 1   
   106    48    49 1   
   107    48   126 1   
   108    48   127 1   
   109    49    50 1   
   110    50    51 1   
   111    50   128 1   
   112    50   129 1   
   113    51    52 1   
   114    51   130 1   
   115    51   131 1   
   116    52    53 1   
   117    52   132 1   
   118    53    54 2   
   119    53    55 1   
   120    55    56 1   
   121    55   133 1   
   122    55   134 1   
   123    56    57 1   
   124    56   135 1   
   125    56   136 1   
   126    57    58 1   
   127    57   137 1   
   128    57   138 1   
   129    58    59 1   
   130    58   139 1   
   131    58   140 1   
   132    59    60 1   
   133    59    63 1   
   134    59   141 1   
   135    60    61 1   
   136    60    64 1   
   137    60   142 1   
   138    61    62 1   
   139    61    65 1   
   140    61   143 1   
   141    62    63 2   
   142    62   144 1   
   143    63   147 1   
   144    64    66 1   
   145    64   145 1   
   146    65    66 1   
   147    65   146 1   
   148    66    67 2   
@<TRIPOS>SUBSTRUCTURE
     1 Q5T         1 TEMP              0 ****  ****    0 ROOT
