@<TRIPOS>MOLECULE
Q5U
   26    27     1     0     0
SMALL
No Charge or Current Charge


@<TRIPOS>ATOM
      1 C4         -45.4540   -49.7310     1.4110 ca         1 Q5U       0.055100
      2 C5         -45.2770   -51.1230     1.4730 ca         1 Q5U      -0.106000
      3 C6         -43.9970   -51.6760     1.2850 ca         1 Q5U      -0.111000
      4 C7         -42.8950   -50.8390     1.0330 ca         1 Q5U      -0.110000
      5 C8         -43.0700   -49.4450     0.9590 ca         1 Q5U      -0.109000
      6 N          -45.6320   -46.2150    -1.5600 n7         1 Q5U      -0.869400
      7 C          -44.2220   -46.5170    -1.8880 c3         1 Q5U       0.150100
      8 O          -46.7120   -49.1980     1.6130 os         1 Q5U      -0.337100
      9 C1         -46.3130   -47.1360    -0.6030 c3         1 Q5U       0.147800
     10 C2         -45.8580   -47.0050     0.8940 c6         1 Q5U       0.090300
     11 C3         -46.7970   -47.7750     1.8570 c6         1 Q5U       0.129600
     12 C9         -44.3480   -48.8880     1.1360 ca         1 Q5U       0.057100
     13 O1         -44.5100   -47.5190     1.0370 os         1 Q5U      -0.341100
     14 H9         -46.1280   -51.7700     1.6750 ha         1 Q5U       0.127000
     15 H10        -43.8590   -52.7540     1.3380 ha         1 Q5U       0.118000
     16 H11        -41.9070   -51.2700     0.8900 ha         1 Q5U       0.118000
     17 H12        -42.2210   -48.7980     0.7550 ha         1 Q5U       0.125000
     18 H13        -45.6900   -45.2530    -1.2000 hn         1 Q5U       0.409000
     19 H2         -43.8640   -45.8570    -2.6900 h1         1 Q5U       0.035033
     20 H1         -43.5670   -46.3690    -1.0200 h1         1 Q5U       0.035033
     21 H          -44.1110   -47.5550    -2.2310 h1         1 Q5U       0.035033
     22 H4         -47.3930   -46.9330    -0.6250 h1         1 Q5U       0.066200
     23 H5         -46.1910   -48.1820    -0.9200 h1         1 Q5U       0.066200
     24 H6         -45.8620   -45.9400     1.1650 h1         1 Q5U       0.081700
     25 H8         -46.4940   -47.5760     2.8940 h1         1 Q5U       0.069200
     26 H7         -47.8390   -47.4460     1.7370 h1         1 Q5U       0.069200
@<TRIPOS>BOND
     1     1     2 ar  
     2     1     8 1   
     3     1    12 ar  
     4     2     3 ar  
     5     2    14 1   
     6     3     4 ar  
     7     3    15 1   
     8     4     5 ar  
     9     4    16 1   
    10     5    12 ar  
    11     5    17 1   
    12     6     7 1   
    13     6     9 1   
    14     6    18 1   
    15     7    19 1   
    16     7    20 1   
    17     7    21 1   
    18     8    11 1   
    19     9    10 1   
    20     9    22 1   
    21     9    23 1   
    22    10    11 1   
    23    10    13 1   
    24    10    24 1   
    25    11    25 1   
    26    11    26 1   
    27    12    13 1   
@<TRIPOS>SUBSTRUCTURE
     1 Q5U         1 TEMP              0 ****  ****    0 ROOT
