@<TRIPOS>MOLECULE
Q5U
   26    27     1     0     0
SMALL
abcg2


@<TRIPOS>ATOM
      1 C4         -45.4590   -49.6860     1.3730 ca         1 Q5U       0.055100
      2 C5         -45.2690   -51.0630     1.4020 ca         1 Q5U      -0.106000
      3 C6         -44.0000   -51.6000     1.2240 ca         1 Q5U      -0.111000
      4 C7         -42.9100   -50.7570     1.0230 ca         1 Q5U      -0.110000
      5 C8         -43.0970   -49.3800     0.9820 ca         1 Q5U      -0.109000
      6 N          -45.6070   -46.2660    -1.5150 n7         1 Q5U      -0.869400
      7 C          -44.2330   -46.6420    -1.8460 c3         1 Q5U       0.150100
      8 O          -46.7250   -49.1960     1.5430 os         1 Q5U      -0.337100
      9 C1         -46.2950   -47.1230    -0.5610 c3         1 Q5U       0.147800
     10 C2         -45.8610   -47.0190     0.9060 c6         1 Q5U       0.090300
     11 C3         -46.7700   -47.7930     1.8440 c6         1 Q5U       0.129600
     12 C9         -44.3660   -48.8370     1.1510 ca         1 Q5U       0.057100
     13 O1         -44.5060   -47.4780     1.1020 os         1 Q5U      -0.341100
     14 H9         -46.1300   -51.6990     1.5690 ha         1 Q5U       0.127000
     15 H10        -43.8640   -52.6740     1.2510 ha         1 Q5U       0.118000
     16 H11        -41.9180   -51.1670     0.8890 ha         1 Q5U       0.118000
     17 H12        -42.2670   -48.7060     0.8120 ha         1 Q5U       0.125000
     18 H13        -45.6390   -45.3030    -1.2000 hn         1 Q5U       0.409000
     19 H2         -43.8800   -46.0140    -2.6660 h1         1 Q5U       0.035033
     20 H1         -43.5250   -46.5580    -1.0150 h1         1 Q5U       0.035033
     21 H          -44.2230   -47.6790    -2.1880 h1         1 Q5U       0.035033
     22 H4         -47.3610   -46.8790    -0.5870 h1         1 Q5U       0.066200
     23 H5         -46.1960   -48.1570    -0.8970 h1         1 Q5U       0.066200
     24 H6         -45.8480   -45.9700     1.2080 h1         1 Q5U       0.081700
     25 H8         -46.4570   -47.6370     2.8800 h1         1 Q5U       0.069200
     26 H7         -47.8080   -47.4870     1.7300 h1         1 Q5U       0.069200
@<TRIPOS>BOND
     1     1     2 ar  
     2     1     8 1   
     3     1    12 ar  
     4     2     3 ar  
     5     2    14 1   
     6     3     4 ar  
     7     3    15 1   
     8     4     5 ar  
     9     4    16 1   
    10     5    12 ar  
    11     5    17 1   
    12     6     7 1   
    13     6     9 1   
    14     6    18 1   
    15     7    19 1   
    16     7    20 1   
    17     7    21 1   
    18     8    11 1   
    19     9    10 1   
    20     9    22 1   
    21     9    23 1   
    22    10    11 1   
    23    10    13 1   
    24    10    24 1   
    25    11    25 1   
    26    11    26 1   
    27    12    13 1   
@<TRIPOS>SUBSTRUCTURE
     1 Q5U         1 TEMP              0 ****  ****    0 ROOT
