@<TRIPOS>MOLECULE
Q5W
   33    34     1     0     0
SMALL
abcg2


@<TRIPOS>ATOM
      1 CAS         29.8050   -26.3310   -11.8550 c3         1 Q5W       0.150900
      2 OAR         30.4370   -25.0700   -12.0720 os         1 Q5W      -0.426100
      3 CAO         31.0750   -24.8950   -13.2160 c          1 Q5W       0.591300
      4 OAQ         31.0700   -25.6930   -14.1220 o          1 Q5W      -0.489000
      5 CAN         31.7610   -23.5730   -13.2960 ce         1 Q5W      -0.145400
      6 CAP         31.4850   -22.7960   -14.5480 c3         1 Q5W      -0.046900
      7 CAM         32.5890   -23.1320   -12.3430 cf         1 Q5W      -0.110200
      8 CAJ         33.0130   -23.8490   -11.1350 ca         1 Q5W      -0.052800
      9 CAI         33.4030   -25.1670   -11.1650 ca         1 Q5W      -0.082000
     10 CAD         33.7970   -25.8410    -9.9900 ca         1 Q5W      -0.033000
     11 CAC         34.1870   -27.2010   -10.0050 ca         1 Q5W      -0.099000
     12 CAA         34.5560   -27.8370    -8.8560 ca         1 Q5W      -0.089000
     13 CAB         34.5620   -27.1410    -7.6190 ca         1 Q5W       0.031000
     14 CAG         34.9490   -27.8210    -6.4270 cg         1 Q5W      -0.130000
     15 CAH         35.2800   -28.4040    -5.4270 c1         1 Q5W      -0.223000
     16 CAF         34.1930   -25.8150    -7.5810 ca         1 Q5W      -0.076000
     17 CAE         33.8060   -25.1400    -8.7570 ca         1 Q5W      -0.035000
     18 CAL         33.4330   -23.7750    -8.7490 ca         1 Q5W      -0.096000
     19 CAK         33.0590   -23.1480    -9.9020 ca         1 Q5W      -0.093000
     20 H1          29.3610   -26.2750   -10.8660 h1         1 Q5W       0.048700
     21 H2          29.0240   -26.5190   -12.5920 h1         1 Q5W       0.048700
     22 H3          30.5280   -27.1450   -11.8820 h1         1 Q5W       0.048700
     23 H4          31.9740   -21.8250   -14.5170 hc         1 Q5W       0.051367
     24 H5          31.8480   -23.3320   -15.4260 hc         1 Q5W       0.051367
     25 H6          30.4140   -22.6360   -14.6910 hc         1 Q5W       0.051367
     26 H7          33.0080   -22.1380   -12.4700 ha         1 Q5W       0.183000
     27 H8          33.4340   -25.7110   -12.1030 ha         1 Q5W       0.120000
     28 H9          34.1850   -27.7400   -10.9450 ha         1 Q5W       0.118000
     29 H10         34.8490   -28.8780    -8.8780 ha         1 Q5W       0.121000
     30 H11         35.5750   -28.9210    -4.5430 ha         1 Q5W       0.258000
     31 H12         34.1960   -25.2760    -6.6420 ha         1 Q5W       0.121000
     32 H13         33.4490   -23.2300    -7.8130 ha         1 Q5W       0.116000
     33 H14         32.7780   -22.1030    -9.8800 ha         1 Q5W       0.115000
@<TRIPOS>BOND
     1     1     2 1   
     2     1    20 1   
     3     1    21 1   
     4     1    22 1   
     5     2     3 1   
     6     3     4 2   
     7     3     5 1   
     8     5     6 1   
     9     5     7 2   
    10     6    23 1   
    11     6    24 1   
    12     6    25 1   
    13     7     8 1   
    14     7    26 1   
    15     8     9 ar  
    16     8    19 ar  
    17     9    10 ar  
    18     9    27 1   
    19    10    11 ar  
    20    10    17 ar  
    21    11    12 ar  
    22    11    28 1   
    23    12    13 ar  
    24    12    29 1   
    25    13    14 1   
    26    13    16 ar  
    27    14    15 3   
    28    15    30 1   
    29    16    17 ar  
    30    16    31 1   
    31    17    18 ar  
    32    18    19 ar  
    33    18    32 1   
    34    19    33 1   
@<TRIPOS>SUBSTRUCTURE
     1 Q5W         1 TEMP              0 ****  ****    0 ROOT
