@<TRIPOS>MOLECULE
Q5W
   33    34     1     0     0
SMALL
No Charge or Current Charge


@<TRIPOS>ATOM
      1 CAS         29.8400   -26.5480   -12.0450 c3         1 Q5W       0.150900
      2 OAR         30.7000   -25.4000   -12.1580 os         1 Q5W      -0.426100
      3 CAO         30.8410   -24.8090   -13.3860 c          1 Q5W       0.591300
      4 OAQ         30.2080   -25.1610   -14.3740 o          1 Q5W      -0.489000
      5 CAN         31.7240   -23.5790   -13.3600 ce         1 Q5W      -0.145400
      6 CAP         31.5880   -22.6780   -14.5850 c3         1 Q5W      -0.046900
      7 CAM         32.5630   -23.2070   -12.3370 cf         1 Q5W      -0.110200
      8 CAJ         32.9750   -23.8890   -11.0940 ca         1 Q5W      -0.052800
      9 CAI         33.3490   -25.2480   -11.0930 ca         1 Q5W      -0.082000
     10 CAD         33.7690   -25.8730    -9.9040 ca         1 Q5W      -0.033000
     11 CAC         34.1250   -27.2350    -9.9060 ca         1 Q5W      -0.099000
     12 CAA         34.5440   -27.8560    -8.7160 ca         1 Q5W      -0.089000
     13 CAB         34.6110   -27.1180    -7.5190 ca         1 Q5W       0.031000
     14 CAG         35.0390   -27.7540    -6.3060 cg         1 Q5W      -0.130000
     15 CAH         35.4000   -28.2840    -5.2740 c1         1 Q5W      -0.223000
     16 CAF         34.2580   -25.7560    -7.5160 ca         1 Q5W      -0.076000
     17 CAE         33.8380   -25.1310    -8.7050 ca         1 Q5W      -0.035000
     18 CAL         33.4910   -23.7680    -8.7090 ca         1 Q5W      -0.096000
     19 CAK         33.0710   -23.1500    -9.8990 ca         1 Q5W      -0.093000
     20 H1          29.8330   -26.9180   -11.0120 h1         1 Q5W       0.048700
     21 H2          28.8090   -26.2950   -12.3230 h1         1 Q5W       0.048700
     22 H3          30.1870   -27.3620   -12.6950 h1         1 Q5W       0.048700
     23 H4          32.0670   -21.7020   -14.4420 hc         1 Q5W       0.051367
     24 H5          32.0460   -23.1410   -15.4670 hc         1 Q5W       0.051367
     25 H6          30.5350   -22.4830   -14.8230 hc         1 Q5W       0.051367
     26 H7          33.0750   -22.2500   -12.4550 ha         1 Q5W       0.183000
     27 H8          33.3170   -25.8160   -12.0180 ha         1 Q5W       0.120000
     28 H9          34.0760   -27.8140   -10.8250 ha         1 Q5W       0.118000
     29 H10         34.8160   -28.9090    -8.7250 ha         1 Q5W       0.121000
     30 H11         35.7200   -28.7590    -4.3670 ha         1 Q5W       0.258000
     31 H12         34.3120   -25.1850    -6.5910 ha         1 Q5W       0.121000
     32 H13         33.5490   -23.1850    -7.7930 ha         1 Q5W       0.116000
     33 H14         32.8080   -22.0940    -9.8910 ha         1 Q5W       0.115000
@<TRIPOS>BOND
     1     1     2 1   
     2     1    20 1   
     3     1    21 1   
     4     1    22 1   
     5     2     3 1   
     6     3     4 2   
     7     3     5 1   
     8     5     6 1   
     9     5     7 2   
    10     6    23 1   
    11     6    24 1   
    12     6    25 1   
    13     7     8 1   
    14     7    26 1   
    15     8     9 ar  
    16     8    19 ar  
    17     9    10 ar  
    18     9    27 1   
    19    10    11 ar  
    20    10    17 ar  
    21    11    12 ar  
    22    11    28 1   
    23    12    13 ar  
    24    12    29 1   
    25    13    14 1   
    26    13    16 ar  
    27    14    15 3   
    28    15    30 1   
    29    16    17 ar  
    30    16    31 1   
    31    17    18 ar  
    32    18    19 ar  
    33    18    32 1   
    34    19    33 1   
@<TRIPOS>SUBSTRUCTURE
     1 Q5W         1 TEMP              0 ****  ****    0 ROOT
