@<TRIPOS>MOLECULE
Q5X
   55    58     1     0     0
SMALL
abcg2


@<TRIPOS>ATOM
      1 C4          12.9160     2.4980     5.0500 c          1 Q5X       0.621700
      2 C6          14.5290     3.2460     3.3770 ca         1 Q5X      -0.080000
      3 C7          15.4440     4.0450     4.0560 ca         1 Q5X       0.184000
      4 C10         15.9860     5.2650     2.0590 ca         1 Q5X      -0.051300
      5 C15         15.1020     4.4430     1.3580 ca         1 Q5X      -0.106000
      6 C20         11.7790    -0.4750     8.8330 c          1 Q5X       0.623700
      7 C22         11.7620    -2.2230    10.5760 c3         1 Q5X       0.162300
      8 C24         11.9820    -4.7130    10.8930 ca         1 Q5X      -0.065000
      9 C26         14.0100    -5.8840    10.3780 ca         1 Q5X      -0.063000
     10 C28         13.8840    -3.4970    10.0620 ca         1 Q5X       0.155100
     11 C12         18.2380     6.5280     1.6270 cy         1 Q5X       0.146600
     12 O13         18.0590     7.8880     2.1020 oq         1 Q5X      -0.459000
     13 C14         16.6190     7.7910     1.9410 cy         1 Q5X       0.146600
     14 C11         16.7260     6.3620     1.3570 cy         1 Q5X      -0.086400
     15 C9          16.1530     5.0480     3.4290 ca         1 Q5X      -0.134000
     16 F8          15.6660     3.8190     5.3690 f          1 Q5X      -0.163000
     17 C16         14.3770     3.4540     2.0090 ca         1 Q5X      -0.105000
     18 N5          13.7850     2.2420     4.0410 ns         1 Q5X      -0.147000
     19 O17         12.7940     3.5930     5.5810 o          1 Q5X      -0.547100
     20 C3          12.1090     1.3190     5.5180 ca         1 Q5X      -0.165600
     21 C18         12.2480     0.9170     6.8410 ca         1 Q5X       0.008000
     22 C2          11.1800     0.6530     4.7180 ca         1 Q5X       0.176000
     23 C34         10.4290    -0.3980     5.2210 ca         1 Q5X      -0.159000
     24 C32         10.6280    -0.7820     6.5330 ca         1 Q5X       0.211000
     25 F33          9.8730    -1.8090     6.9830 f          1 Q5X      -0.173000
     26 C19         11.5300    -0.1470     7.3830 ca         1 Q5X      -0.182600
     27 O31         12.2690     0.3800     9.5710 o          1 Q5X      -0.595100
     28 N21         11.4640    -1.7150     9.2410 ns         1 Q5X      -0.490900
     29 C23         12.5520    -3.5040    10.5160 ca         1 Q5X      -0.154300
     30 C25         12.6990    -5.9070    10.8310 ca         1 Q5X      -0.150000
     31 C27         14.6080    -4.6860     9.9930 ca         1 Q5X      -0.199000
     32 C30         15.7250    -2.2070     9.2340 c3         1 Q5X       0.147900
     33 H1          14.9670     4.5910     0.2950 ha         1 Q5X       0.120000
     34 H2          12.3140    -1.4430    11.0950 h1         1 Q5X       0.069200
     35 H3          10.8300    -2.3990    11.1160 h1         1 Q5X       0.069200
     36 H4          10.9550    -4.7160    11.2410 ha         1 Q5X       0.114000
     37 H5          14.5830    -6.8010    10.3200 ha         1 Q5X       0.113000
     38 H6          18.6430     5.8800     2.4070 h1         1 Q5X       0.058200
     39 H7          18.8780     6.4890     0.7440 h1         1 Q5X       0.058200
     40 H8          16.2350     8.5510     1.2590 h1         1 Q5X       0.058200
     41 H9          16.1020     7.8560     2.9010 h1         1 Q5X       0.058200
     42 H10         16.4960     6.3330     0.2940 hc         1 Q5X       0.071700
     43 H11         16.8390     5.6430     4.0190 ha         1 Q5X       0.141000
     44 H12         13.6750     2.8360     1.4640 ha         1 Q5X       0.122000
     45 H13         13.7510     1.3320     3.6050 hn         1 Q5X       0.161000
     46 H14         12.9400     1.4410     7.4840 ha         1 Q5X       0.164000
     47 H16          9.6930    -0.9070     4.6160 ha         1 Q5X       0.154000
     48 H17         11.0900    -2.3700     8.5740 hn         1 Q5X       0.322500
     49 H18         12.2360    -6.8370    11.1320 ha         1 Q5X       0.118000
     50 H19         15.6310    -4.6880     9.6460 ha         1 Q5X       0.119000
     51 H20         15.9000    -1.1570     9.0130 h1         1 Q5X       0.044367
     52 H21         16.4340    -2.5470     9.9920 h1         1 Q5X       0.044367
     53 H22         15.8490    -2.8000     8.3260 h1         1 Q5X       0.044367
     54 CL1         10.8850     1.1550     3.0750 cl         1 Q5X      -0.186000
     55 O29         14.3840    -2.2830     9.7160 os         1 Q5X      -0.342100
@<TRIPOS>BOND
     1     1    18 1   
     2     1    19 2   
     3     1    20 1   
     4     2     3 ar  
     5     2    17 ar  
     6     2    18 1   
     7     3    15 ar  
     8     3    16 1   
     9     4     5 ar  
    10     4    14 1   
    11     4    15 ar  
    12     5    17 ar  
    13     5    33 1   
    14     6    26 1   
    15     6    27 2   
    16     6    28 1   
    17     7    28 1   
    18     7    29 1   
    19     7    34 1   
    20     7    35 1   
    21     8    29 ar  
    22     8    30 ar  
    23     8    36 1   
    24     9    30 ar  
    25     9    31 ar  
    26     9    37 1   
    27    10    29 ar  
    28    10    31 ar  
    29    10    55 1   
    30    11    12 1   
    31    11    14 1   
    32    11    38 1   
    33    11    39 1   
    34    12    13 1   
    35    13    14 1   
    36    13    40 1   
    37    13    41 1   
    38    14    42 1   
    39    15    43 1   
    40    17    44 1   
    41    18    45 1   
    42    20    21 ar  
    43    20    22 ar  
    44    21    26 ar  
    45    21    46 1   
    46    22    23 ar  
    47    22    54 1   
    48    23    24 ar  
    49    23    47 1   
    50    24    25 1   
    51    24    26 ar  
    52    28    48 1   
    53    30    49 1   
    54    31    50 1   
    55    32    51 1   
    56    32    52 1   
    57    32    53 1   
    58    32    55 1   
@<TRIPOS>SUBSTRUCTURE
     1 Q5X         1 TEMP              0 ****  ****    0 ROOT
