@<TRIPOS>MOLECULE
Q5X
   55    58     1     0     0
SMALL
No Charge or Current Charge


@<TRIPOS>ATOM
      1 C4          13.5500     2.5370     4.8300 c          1 Q5X       0.621700
      2 C6          14.5500     3.8880     2.9080 ca         1 Q5X      -0.080000
      3 C7          15.2650     4.9250     3.5520 ca         1 Q5X       0.184000
      4 C10         15.3820     6.1820     1.4590 ca         1 Q5X      -0.051300
      5 C15         14.6910     5.1380     0.8150 ca         1 Q5X      -0.106000
      6 C20         12.9290    -0.5150     8.7540 c          1 Q5X       0.623700
      7 C22         12.6440    -2.0480    10.7190 c3         1 Q5X       0.162300
      8 C24         10.9580    -3.8890    11.1390 ca         1 Q5X      -0.065000
      9 C26         11.6250    -6.2130    11.4020 ca         1 Q5X      -0.063000
     10 C28         13.3170    -4.4970    11.0000 ca         1 Q5X       0.155100
     11 C12         17.2990     7.8840     0.7950 cy         1 Q5X       0.146600
     12 O13         16.7950     9.2620     0.6770 oq         1 Q5X      -0.459000
     13 C14         15.5210     8.8200     1.2660 cy         1 Q5X       0.146600
     14 C11         15.8150     7.4100     0.6570 cy         1 Q5X      -0.086400
     15 C9          15.6720     6.0610     2.8340 ca         1 Q5X      -0.134000
     16 F8          15.6230     4.8210     4.8510 f          1 Q5X      -0.163000
     17 C16         14.2850     3.9990     1.5300 ca         1 Q5X      -0.105000
     18 N5          14.1190     2.7110     3.5780 ns         1 Q5X      -0.147000
     19 O17         13.2420     3.4890     5.5390 o          1 Q5X      -0.547100
     20 C3          13.2850     1.1150     5.2940 ca         1 Q5X      -0.165600
     21 C18         13.2080     0.8970     6.6910 ca         1 Q5X       0.008000
     22 C2          13.1000     0.0040     4.4300 ca         1 Q5X       0.176000
     23 C34         12.8750    -1.2690     4.9700 ca         1 Q5X      -0.159000
     24 C32         12.8200    -1.4720     6.3520 ca         1 Q5X       0.211000
     25 F33         12.5990    -2.7320     6.7880 f          1 Q5X      -0.173000
     26 C19         12.9820    -0.3860     7.2430 ca         1 Q5X      -0.182600
     27 O31         13.0810     0.4530     9.4860 o          1 Q5X      -0.595100
     28 N21         12.7040    -1.7590     9.2900 ns         1 Q5X      -0.490900
     29 C23         12.3050    -3.5130    10.9610 ca         1 Q5X      -0.154300
     30 C25         10.6210    -5.2340    11.3590 ca         1 Q5X      -0.150000
     31 C27         12.9690    -5.8490    11.2220 ca         1 Q5X      -0.199000
     32 C30         15.7250    -5.0330    10.8250 c3         1 Q5X       0.147900
     33 H1          14.4660     5.2070    -0.2480 ha         1 Q5X       0.120000
     34 H2          13.6090    -1.7990    11.1790 h1         1 Q5X       0.069200
     35 H3          11.8800    -1.4080    11.1810 h1         1 Q5X       0.069200
     36 H4          10.1710    -3.1380    11.1050 ha         1 Q5X       0.114000
     37 H5          11.3600    -7.2550    11.5720 ha         1 Q5X       0.113000
     38 H6          17.7630     7.7030     1.7720 h1         1 Q5X       0.058200
     39 H7          17.9670     7.6030    -0.0270 h1         1 Q5X       0.058200
     40 H8          14.6550     9.3470     0.8500 h1         1 Q5X       0.058200
     41 H9          15.5390     8.8750     2.3620 h1         1 Q5X       0.058200
     42 H10         15.5060     7.3530    -0.3930 hc         1 Q5X       0.071700
     43 H11         16.2230     6.8390     3.3550 ha         1 Q5X       0.141000
     44 H12         13.7520     3.2040     1.0120 ha         1 Q5X       0.122000
     45 H13         14.2680     1.8560     3.0580 hn         1 Q5X       0.161000
     46 H14         13.3420     1.7440     7.3630 ha         1 Q5X       0.164000
     47 H16         12.7280    -2.1150     4.3040 ha         1 Q5X       0.154000
     48 H17         12.5920    -2.5270     8.6410 hn         1 Q5X       0.322500
     49 H18          9.5800    -5.5170    11.4960 ha         1 Q5X       0.118000
     50 H19         13.7240    -6.6280    11.2580 ha         1 Q5X       0.119000
     51 H20         16.6730    -4.5070    10.6550 h1         1 Q5X       0.044367
     52 H21         15.7910    -5.5470    11.7920 h1         1 Q5X       0.044367
     53 H22         15.6080    -5.7840    10.0330 h1         1 Q5X       0.044367
     54 Cl1         13.0530     0.1140     2.6670 cl         1 Q5X      -0.186000
     55 O29         14.6290    -4.1020    10.8130 os         1 Q5X      -0.342100
@<TRIPOS>BOND
     1     1    18 1   
     2     1    19 2   
     3     1    20 1   
     4     2     3 ar  
     5     2    17 ar  
     6     2    18 1   
     7     3    15 ar  
     8     3    16 1   
     9     4     5 ar  
    10     4    14 1   
    11     4    15 ar  
    12     5    17 ar  
    13     5    33 1   
    14     6    26 1   
    15     6    27 2   
    16     6    28 1   
    17     7    28 1   
    18     7    29 1   
    19     7    34 1   
    20     7    35 1   
    21     8    29 ar  
    22     8    30 ar  
    23     8    36 1   
    24     9    30 ar  
    25     9    31 ar  
    26     9    37 1   
    27    10    29 ar  
    28    10    31 ar  
    29    10    55 1   
    30    11    12 1   
    31    11    14 1   
    32    11    38 1   
    33    11    39 1   
    34    12    13 1   
    35    13    14 1   
    36    13    40 1   
    37    13    41 1   
    38    14    42 1   
    39    15    43 1   
    40    17    44 1   
    41    18    45 1   
    42    20    21 ar  
    43    20    22 ar  
    44    21    26 ar  
    45    21    46 1   
    46    22    23 ar  
    47    22    54 1   
    48    23    24 ar  
    49    23    47 1   
    50    24    25 1   
    51    24    26 ar  
    52    28    48 1   
    53    30    49 1   
    54    31    50 1   
    55    32    51 1   
    56    32    52 1   
    57    32    53 1   
    58    32    55 1   
@<TRIPOS>SUBSTRUCTURE
     1 Q5X         1 TEMP              0 ****  ****    0 ROOT
