@<TRIPOS>MOLECULE
Q5Y
   61    64     1     0     0
SMALL
No Charge or Current Charge


@<TRIPOS>ATOM
      1 O3         -50.3370    -5.6730     3.7930 os         1 Q5Y      -0.351100
      2 O1         -47.0460   -10.1050    -0.2300 o          1 Q5Y      -0.726500
      3 O2         -47.4480   -10.6650     1.8070 o          1 Q5Y      -0.726500
      4 O4         -45.0600    -7.3070     0.1600 o          1 Q5Y      -0.573000
      5 S1         -44.9770    -7.2380     1.6240 sy         1 Q5Y       1.230600
      6 N1         -44.8730    -8.8370     2.2050 nh         1 Q5Y      -0.793300
      7 C7         -45.1920    -9.9920     1.3030 c3         1 Q5Y       0.079800
      8 C8         -46.6920   -10.2600     0.9320 c          1 Q5Y       0.702000
      9 C4         -44.7010    -9.0160     3.5910 ca         1 Q5Y       0.316000
     10 C5         -45.8360    -9.0810     4.4140 ca         1 Q5Y      -0.099000
     11 C6         -45.7120    -9.2620     5.7990 ca         1 Q5Y      -0.115000
     12 C1         -44.4480    -9.4000     6.3910 ca         1 Q5Y       0.207000
     13 N2         -44.3950    -9.5650     7.7760 nu         1 Q5Y      -0.838100
     14 S2         -44.1390    -8.3340     8.8920 sy         1 Q5Y       1.153600
     15 O7         -42.8110    -7.8070     8.5690 o          1 Q5Y      -0.548500
     16 C20        -45.3920    -7.1090     8.5170 ca         1 Q5Y      -0.357500
     17 C21        -45.1390    -6.1300     7.5380 ca         1 Q5Y       0.029500
     18 C22        -46.1120    -5.1550     7.2610 ca         1 Q5Y      -0.193000
     19 C23        -47.3340    -5.1510     7.9490 ca         1 Q5Y       0.186100
     20 O6         -48.2420    -4.1580     7.6430 os         1 Q5Y      -0.347100
     21 C26        -49.4790    -4.0030     8.3610 c3         1 Q5Y       0.146900
     22 C24        -47.5910    -6.1420     8.9190 ca         1 Q5Y      -0.193000
     23 C25        -46.6230    -7.1200     9.2020 ca         1 Q5Y       0.029500
     24 O8         -44.4400    -8.9800    10.1710 o          1 Q5Y      -0.548500
     25 C2         -43.2880    -9.3960     5.5700 ca         1 Q5Y      -0.017000
     26 C3         -43.4160    -9.1950     4.1690 ca         1 Q5Y      -0.017000
     27 C16        -42.2520    -9.1940     3.3610 ca         1 Q5Y      -0.070000
     28 C17        -40.9850    -9.3960     3.9270 ca         1 Q5Y      -0.116000
     29 C18        -40.8600    -9.6120     5.3050 ca         1 Q5Y      -0.112000
     30 C19        -42.0030    -9.6170     6.1200 ca         1 Q5Y      -0.077000
     31 C9         -46.5720    -6.7480     2.2880 ca         1 Q5Y      -0.319500
     32 C10        -46.6520    -6.0990     3.5350 ca         1 Q5Y       0.044500
     33 C11        -47.9050    -5.7330     4.0550 ca         1 Q5Y      -0.196000
     34 C12        -49.0820    -6.0070     3.3280 ca         1 Q5Y       0.172100
     35 C15        -50.5380    -5.0600     5.0780 c3         1 Q5Y       0.151900
     36 C13        -48.9930    -6.6420     2.0820 ca         1 Q5Y      -0.196000
     37 C14        -47.7450    -7.0140     1.5570 ca         1 Q5Y       0.044500
     38 O5         -43.9220    -6.4720     2.2970 o          1 Q5Y      -0.573000
     39 H2         -44.8200   -10.9150     1.7650 h1         1 Q5Y       0.055700
     40 H3         -44.6340    -9.8870     0.3630 h1         1 Q5Y       0.055700
     41 H4         -46.8230    -8.9850     3.9700 ha         1 Q5Y       0.173000
     42 H5         -46.6090    -9.2840     6.4130 ha         1 Q5Y       0.107000
     43 H6         -45.2080   -10.0210     8.1670 hn         1 Q5Y       0.469000
     44 H7         -44.1940    -6.1150     6.9970 ha         1 Q5Y       0.139500
     45 H8         -45.9130    -4.3920     6.5130 ha         1 Q5Y       0.128000
     46 H9         -50.0410    -3.1460     7.9680 h1         1 Q5Y       0.044033
     47 H10        -50.1070    -4.8970     8.2570 h1         1 Q5Y       0.044033
     48 H11        -49.2910    -3.8260     9.4280 h1         1 Q5Y       0.044033
     49 H12        -48.5290    -6.1680     9.4650 ha         1 Q5Y       0.128000
     50 H13        -46.8330    -7.8750     9.9590 ha         1 Q5Y       0.139500
     51 H14        -42.3220    -9.0410     2.2870 ha         1 Q5Y       0.129000
     52 H15        -40.1000    -9.3940     3.2940 ha         1 Q5Y       0.106000
     53 H16        -39.8800    -9.7810     5.7430 ha         1 Q5Y       0.104000
     54 H17        -41.8780    -9.8060     7.1820 ha         1 Q5Y       0.123000
     55 H18        -45.7510    -5.8870     4.1100 ha         1 Q5Y       0.135000
     56 H19        -47.9420    -5.2390     5.0200 ha         1 Q5Y       0.119000
     57 H20        -51.6070    -4.8880     5.2550 h1         1 Q5Y       0.036033
     58 H21        -50.1600    -5.7080     5.8800 h1         1 Q5Y       0.036033
     59 H22        -50.0230    -4.0920     5.1340 h1         1 Q5Y       0.036033
     60 H23        -49.8980    -6.8520     1.5180 ha         1 Q5Y       0.119000
     61 H24        -47.6970    -7.5070     0.5880 ha         1 Q5Y       0.135000
@<TRIPOS>BOND
     1     1    34 1   
     2     1    35 1   
     3     2     8 1   
     4     3     8 1   
     5     4     5 2   
     6     5     6 1   
     7     5    31 1   
     8     5    38 2   
     9     6     7 1   
    10     6     9 1   
    11     7     8 1   
    12     7    39 1   
    13     7    40 1   
    14     9    10 ar  
    15     9    26 ar  
    16    10    11 ar  
    17    10    41 1   
    18    11    12 ar  
    19    11    42 1   
    20    12    13 1   
    21    12    25 ar  
    22    13    14 1   
    23    13    43 1   
    24    14    15 2   
    25    14    16 1   
    26    14    24 2   
    27    16    17 ar  
    28    16    23 ar  
    29    17    18 ar  
    30    17    44 1   
    31    18    19 ar  
    32    18    45 1   
    33    19    20 1   
    34    19    22 ar  
    35    20    21 1   
    36    21    46 1   
    37    21    47 1   
    38    21    48 1   
    39    22    23 ar  
    40    22    49 1   
    41    23    50 1   
    42    25    26 ar  
    43    25    30 ar  
    44    26    27 ar  
    45    27    28 ar  
    46    27    51 1   
    47    28    29 ar  
    48    28    52 1   
    49    29    30 ar  
    50    29    53 1   
    51    30    54 1   
    52    31    32 ar  
    53    31    37 ar  
    54    32    33 ar  
    55    32    55 1   
    56    33    34 ar  
    57    33    56 1   
    58    34    36 ar  
    59    35    57 1   
    60    35    58 1   
    61    35    59 1   
    62    36    37 ar  
    63    36    60 1   
    64    37    61 1   
@<TRIPOS>SUBSTRUCTURE
     1 Q5Y         1 TEMP              0 ****  ****    0 ROOT
