@<TRIPOS>MOLECULE
Q5Y
   61    64     1     0     0
SMALL
abcg2


@<TRIPOS>ATOM
      1 O3         -50.5840    -5.3560     3.4010 os         1 Q5Y      -0.351100
      2 O1         -46.7080   -11.4720     0.7930 o          1 Q5Y      -0.726500
      3 O2         -47.5570    -9.8270     2.0690 o          1 Q5Y      -0.726500
      4 O4         -45.0410    -7.0660     0.5130 o          1 Q5Y      -0.573000
      5 S1         -45.1500    -7.1050     1.9550 sy         1 Q5Y       1.230600
      6 N1         -44.9760    -8.6740     2.3960 nh         1 Q5Y      -0.793300
      7 C7         -45.2210    -9.7800     1.4650 c3         1 Q5Y       0.079800
      8 C8         -46.6340   -10.4080     1.4600 c          1 Q5Y       0.702000
      9 C4         -44.7830    -8.9690     3.7840 ca         1 Q5Y       0.316000
     10 C5         -45.8570    -9.0490     4.6330 ca         1 Q5Y      -0.099000
     11 C6         -45.6620    -9.2900     6.0030 ca         1 Q5Y      -0.115000
     12 C1         -44.4000    -9.4860     6.5070 ca         1 Q5Y       0.207000
     13 N2         -44.2250    -9.6970     7.9140 nu         1 Q5Y      -0.838100
     14 S2         -43.8850    -8.3630     8.8710 sy         1 Q5Y       1.153600
     15 O7         -42.6130    -7.8380     8.4420 o          1 Q5Y      -0.548500
     16 C20        -45.1190    -7.1630     8.5070 ca         1 Q5Y      -0.357500
     17 C21        -44.8830    -6.2080     7.5160 ca         1 Q5Y       0.029500
     18 C22        -45.8790    -5.3140     7.1800 ca         1 Q5Y      -0.193000
     19 C23        -47.1230    -5.3700     7.8210 ca         1 Q5Y       0.186100
     20 O6         -48.0350    -4.4580     7.4200 os         1 Q5Y      -0.347100
     21 C26        -49.3220    -4.4510     8.0470 c3         1 Q5Y       0.146900
     22 C24        -47.3570    -6.3320     8.8090 ca         1 Q5Y      -0.193000
     23 C25        -46.3520    -7.2280     9.1450 ca         1 Q5Y       0.029500
     24 O8         -44.0470    -8.8320    10.2260 o          1 Q5Y      -0.548500
     25 C2         -43.2650    -9.4850     5.6480 ca         1 Q5Y      -0.017000
     26 C3         -43.4620    -9.1970     4.2610 ca         1 Q5Y      -0.017000
     27 C16        -42.3360    -9.1670     3.4030 ca         1 Q5Y      -0.070000
     28 C17        -41.0800    -9.4360     3.8830 ca         1 Q5Y      -0.116000
     29 C18        -40.8910    -9.7520     5.2450 ca         1 Q5Y      -0.112000
     30 C19        -41.9570    -9.7720     6.1070 ca         1 Q5Y      -0.077000
     31 C9         -46.7640    -6.5480     2.3940 ca         1 Q5Y      -0.319500
     32 C10        -46.9830    -6.0210     3.6610 ca         1 Q5Y       0.044500
     33 C11        -48.2540    -5.6110     4.0400 ca         1 Q5Y      -0.196000
     34 C12        -49.3110    -5.7260     3.1330 ca         1 Q5Y       0.172100
     35 C15        -50.8860    -4.8500     4.7030 c3         1 Q5Y       0.151900
     36 C13        -49.0810    -6.2480     1.8530 ca         1 Q5Y      -0.196000
     37 C14        -47.8170    -6.6640     1.4880 ca         1 Q5Y       0.044500
     38 O5         -44.2230    -6.3380     2.7580 o          1 Q5Y      -0.573000
     39 H2         -44.4940   -10.5590     1.6960 h1         1 Q5Y       0.055700
     40 H3         -45.0040    -9.4320     0.4570 h1         1 Q5Y       0.055700
     41 H4         -46.8500    -8.9160     4.2320 ha         1 Q5Y       0.173000
     42 H5         -46.5110    -9.3000     6.6730 ha         1 Q5Y       0.107000
     43 H6         -45.0040   -10.1970     8.3320 hn         1 Q5Y       0.469000
     44 H7         -43.9260    -6.1680     7.0160 ha         1 Q5Y       0.139500
     45 H8         -45.7150    -4.5620     6.4200 ha         1 Q5Y       0.128000
     46 H9         -49.8750    -3.6470     7.5710 h1         1 Q5Y       0.044033
     47 H10        -49.8370    -5.4000     7.8880 h1         1 Q5Y       0.044033
     48 H11        -49.2290    -4.2560     9.1170 h1         1 Q5Y       0.044033
     49 H12        -48.3080    -6.3900     9.3170 ha         1 Q5Y       0.128000
     50 H13        -46.5330    -7.9760     9.9050 ha         1 Q5Y       0.139500
     51 H14        -42.4850    -8.9300     2.3600 ha         1 Q5Y       0.129000
     52 H15        -40.2290    -9.4130     3.2140 ha         1 Q5Y       0.106000
     53 H16        -39.8970    -9.9800     5.6100 ha         1 Q5Y       0.104000
     54 H17        -41.8120   -10.0070     7.1500 ha         1 Q5Y       0.123000
     55 H18        -46.1620    -5.9280     4.3560 ha         1 Q5Y       0.135000
     56 H19        -48.4040    -5.2040     5.0290 ha         1 Q5Y       0.119000
     57 H20        -51.9510    -4.6350     4.6990 h1         1 Q5Y       0.036033
     58 H21        -50.6620    -5.5950     5.4690 h1         1 Q5Y       0.036033
     59 H22        -50.3250    -3.9360     4.9070 h1         1 Q5Y       0.036033
     60 H23        -49.9110    -6.3230     1.1620 ha         1 Q5Y       0.119000
     61 H24        -47.6430    -7.0750     0.5040 ha         1 Q5Y       0.135000
@<TRIPOS>BOND
     1     1    34 1   
     2     1    35 1   
     3     2     8 1   
     4     3     8 1   
     5     4     5 2   
     6     5     6 1   
     7     5    31 1   
     8     5    38 2   
     9     6     7 1   
    10     6     9 1   
    11     7     8 1   
    12     7    39 1   
    13     7    40 1   
    14     9    10 ar  
    15     9    26 ar  
    16    10    11 ar  
    17    10    41 1   
    18    11    12 ar  
    19    11    42 1   
    20    12    13 1   
    21    12    25 ar  
    22    13    14 1   
    23    13    43 1   
    24    14    15 2   
    25    14    16 1   
    26    14    24 2   
    27    16    17 ar  
    28    16    23 ar  
    29    17    18 ar  
    30    17    44 1   
    31    18    19 ar  
    32    18    45 1   
    33    19    20 1   
    34    19    22 ar  
    35    20    21 1   
    36    21    46 1   
    37    21    47 1   
    38    21    48 1   
    39    22    23 ar  
    40    22    49 1   
    41    23    50 1   
    42    25    26 ar  
    43    25    30 ar  
    44    26    27 ar  
    45    27    28 ar  
    46    27    51 1   
    47    28    29 ar  
    48    28    52 1   
    49    29    30 ar  
    50    29    53 1   
    51    30    54 1   
    52    31    32 ar  
    53    31    37 ar  
    54    32    33 ar  
    55    32    55 1   
    56    33    34 ar  
    57    33    56 1   
    58    34    36 ar  
    59    35    57 1   
    60    35    58 1   
    61    35    59 1   
    62    36    37 ar  
    63    36    60 1   
    64    37    61 1   
@<TRIPOS>SUBSTRUCTURE
     1 Q5Y         1 TEMP              0 ****  ****    0 ROOT
