@<TRIPOS>MOLECULE
Q5Z
   61    64     1     0     0
SMALL
bcc


@<TRIPOS>ATOM
      1 C10        -32.4030    22.3310    14.1730 cp         1 Q5Z      -0.157300
      2 C13        -35.8330    22.5860    15.7210 ca         1 Q5Z      -0.125500
      3 C15        -37.6440    20.9120    16.2350 c6         1 Q5Z      -0.020400
      4 C17        -38.8490    19.3850    17.8720 c6         1 Q5Z       0.151800
      5 C20        -38.5310    20.1570    15.2440 c6         1 Q5Z      -0.106900
      6 C21        -35.4520    20.3090    15.1210 ca         1 Q5Z      -0.125500
      7 C22        -34.1980    20.6430    14.6370 ca         1 Q5Z      -0.114500
      8 C24        -31.2210    20.6980    15.7060 c3         1 Q5Z      -0.057800
      9 C26        -26.4660    21.9520    15.2520 ca         1 Q5Z       0.157100
     10 C28        -25.6480    24.0780    15.9050 c3         1 Q5Z       0.122200
     11 C01        -27.8300    17.5260    14.0440 c3         1 Q5Z       0.122200
     12 C03        -27.2010    19.7380    14.6100 ca         1 Q5Z       0.157100
     13 C04        -28.4460    20.2540    14.2610 ca         1 Q5Z      -0.236000
     14 C05        -28.7000    21.6130    14.4170 cp         1 Q5Z       0.035000
     15 C06        -30.0180    22.1690    14.0390 cp         1 Q5Z      -0.164300
     16 C07        -30.0680    23.1880    13.0920 ca         1 Q5Z       0.413200
     17 C09        -32.3190    23.3420    13.2200 ca         1 Q5Z       0.412200
     18 C11        -33.7360    21.9580    14.6950 cp         1 Q5Z      -0.038000
     19 C12        -34.5760    22.9260    15.2390 ca         1 Q5Z      -0.114500
     20 C14        -36.2930    21.2730    15.6770 ca         1 Q5Z      -0.067300
     21 C16        -37.5170    20.0810    17.5240 c6         1 Q5Z      -0.106900
     22 C19        -39.9520    19.9990    15.8230 c6         1 Q5Z       0.151800
     23 C23        -31.2180    21.7290    14.6160 ca         1 Q5Z      -0.007300
     24 C25        -27.7150    22.4650    14.9050 ca         1 Q5Z      -0.236000
     25 C29        -26.2110    20.5850    15.1170 ca         1 Q5Z       0.027100
     26 C31        -24.0270    20.0680    14.4710 c3         1 Q5Z       0.125700
     27 N08        -31.1850    23.7710    12.6870 nb         1 Q5Z      -0.665000
     28 N18        -40.0130    20.0200    17.2800 n7         1 Q5Z      -0.793200
     29 O27        -25.4520    22.6870    15.7370 os         1 Q5Z      -0.299400
     30 O30        -25.0110    20.0740    15.4960 os         1 Q5Z      -0.304900
     31 H131       -36.4630    23.3580    16.1470 ha         1 Q5Z       0.131500
     32 H1         -38.1510    21.8520    16.4830 hc         1 Q5Z       0.048700
     33 H171       -38.9790    19.3400    18.9540 h1         1 Q5Z       0.050700
     34 H172       -38.8270    18.3480    17.5250 h1         1 Q5Z       0.050700
     35 H202       -38.5750    20.6810    14.2870 hc         1 Q5Z       0.047200
     36 H201       -38.0930    19.1750    15.0390 hc         1 Q5Z       0.047200
     37 H211       -35.7740    19.2760    15.0610 ha         1 Q5Z       0.131500
     38 H221       -33.5780    19.8720    14.1960 ha         1 Q5Z       0.134000
     39 H243       -30.3160    20.7600    16.3080 hc         1 Q5Z       0.052700
     40 H242       -32.0800    20.8190    16.3620 hc         1 Q5Z       0.052700
     41 H241       -31.2670    19.6850    15.3020 hc         1 Q5Z       0.052700
     42 H281       -24.7110    24.4760    16.2860 h1         1 Q5Z       0.042367
     43 H282       -25.8830    24.5740    14.9610 h1         1 Q5Z       0.042367
     44 H283       -26.4420    24.2930    16.6240 h1         1 Q5Z       0.042367
     45 H011       -27.3590    16.5460    14.0590 h1         1 Q5Z       0.042367
     46 H013       -28.7080    17.5040    14.6960 h1         1 Q5Z       0.042367
     47 H012       -28.1530    17.7440    13.0240 h1         1 Q5Z       0.042367
     48 H041       -29.2200    19.6180    13.8540 ha         1 Q5Z       0.142500
     49 H071       -29.1450    23.5380    12.6390 h4         1 Q5Z       0.023100
     50 H091       -33.2290    23.8200    12.8710 h4         1 Q5Z       0.023100
     51 H121       -34.2420    23.9550    15.3010 ha         1 Q5Z       0.134000
     52 H161       -36.7330    19.3290    17.4010 hc         1 Q5Z       0.047200
     53 H2         -37.1960    20.7330    18.3400 hc         1 Q5Z       0.047200
     54 H192       -40.5930    20.8020    15.4540 h1         1 Q5Z       0.050700
     55 H191       -40.3850    19.0620    15.4600 h1         1 Q5Z       0.050700
     56 H251       -27.9390    23.5160    15.0240 ha         1 Q5Z       0.142500
     57 H312       -23.1370    19.5950    14.8810 h1         1 Q5Z       0.033700
     58 H313       -24.3540    19.4970    13.5990 h1         1 Q5Z       0.033700
     59 H311       -23.7690    21.0810    14.1510 h1         1 Q5Z       0.033700
     60 H3         -40.0620    20.9800    17.5990 hn         1 Q5Z       0.348800
     61 O02        -26.8570    18.4440    14.5010 os         1 Q5Z      -0.299400
@<TRIPOS>BOND
     1     1    17 ar  
     2     1    18 1   
     3     1    23 ar  
     4     2    19 ar  
     5     2    20 ar  
     6     2    31 1   
     7     3     5 1   
     8     3    20 1   
     9     3    21 1   
    10     3    32 1   
    11     4    21 1   
    12     4    28 1   
    13     4    33 1   
    14     4    34 1   
    15     5    22 1   
    16     5    35 1   
    17     5    36 1   
    18     6     7 ar  
    19     6    20 ar  
    20     6    37 1   
    21     7    18 ar  
    22     7    38 1   
    23     8    23 1   
    24     8    39 1   
    25     8    40 1   
    26     8    41 1   
    27     9    24 ar  
    28     9    25 ar  
    29     9    29 1   
    30    10    29 1   
    31    10    42 1   
    32    10    43 1   
    33    10    44 1   
    34    11    45 1   
    35    11    46 1   
    36    11    47 1   
    37    11    61 1   
    38    12    13 ar  
    39    12    25 ar  
    40    12    61 1   
    41    13    14 ar  
    42    13    48 1   
    43    14    15 1   
    44    14    24 ar  
    45    15    16 ar  
    46    15    23 ar  
    47    16    27 ar  
    48    16    49 1   
    49    17    27 ar  
    50    17    50 1   
    51    18    19 ar  
    52    19    51 1   
    53    21    52 1   
    54    21    53 1   
    55    22    28 1   
    56    22    54 1   
    57    22    55 1   
    58    24    56 1   
    59    25    30 1   
    60    26    30 1   
    61    26    57 1   
    62    26    58 1   
    63    26    59 1   
    64    28    60 1   
@<TRIPOS>SUBSTRUCTURE
     1 Q5Z         1 TEMP              0 ****  ****    0 ROOT
