@<TRIPOS>MOLECULE
Q5Z
   61    64     1     0     0
SMALL
No Charge or Current Charge


@<TRIPOS>ATOM
      1 C10        -32.4470    22.3780    14.1450 cp         1 Q5Z      -0.092000
      2 C13        -35.8800    22.6380    15.8070 ca         1 Q5Z      -0.107500
      3 C15        -37.7030    20.9370    16.3530 c6         1 Q5Z      -0.020400
      4 C17        -38.8820    19.2170    17.9100 c6         1 Q5Z       0.151800
      5 C20        -38.6340    20.2700    15.3060 c6         1 Q5Z      -0.106900
      6 C21        -35.4960    20.3180    15.2020 ca         1 Q5Z      -0.107500
      7 C22        -34.2400    20.6640    14.6770 ca         1 Q5Z      -0.096500
      8 C24        -31.2070    20.7040    15.6490 c3         1 Q5Z      -0.057800
      9 C26        -26.3310    21.8250    14.8860 ca         1 Q5Z       0.157100
     10 C28        -25.4240    24.0820    15.4010 c3         1 Q5Z       0.145400
     11 C01        -28.0540    17.3170    13.8790 c3         1 Q5Z       0.145400
     12 C03        -27.2220    19.5990    14.3730 ca         1 Q5Z       0.157100
     13 C04        -28.4790    20.1740    14.0920 ca         1 Q5Z      -0.218000
     14 C05        -28.6890    21.5610    14.2120 cp         1 Q5Z       0.035000
     15 C06        -30.0180    22.1690    13.9050 cp         1 Q5Z      -0.099000
     16 C07        -30.0940    23.2110    12.9500 ca         1 Q5Z       0.347900
     17 C09        -32.3800    23.4090    13.1760 ca         1 Q5Z       0.346900
     18 C11        -33.7760    22.0000    14.7150 cp         1 Q5Z      -0.038000
     19 C12        -34.6230    22.9820    15.2800 ca         1 Q5Z      -0.096500
     20 C14        -36.3270    21.3030    15.7740 ca         1 Q5Z      -0.067300
     21 C16        -37.5870    20.0270    17.6140 c6         1 Q5Z      -0.106900
     22 C19        -40.0560    20.0030    15.8800 c6         1 Q5Z       0.151800
     23 C23        -31.2270    21.7540    14.5350 ca         1 Q5Z      -0.007300
     24 C25        -27.6040    22.3710    14.6000 ca         1 Q5Z      -0.218000
     25 C29        -26.1360    20.4140    14.7740 ca         1 Q5Z       0.027100
     26 C31        -23.7120    20.3920    15.4510 c3         1 Q5Z       0.148900
     27 N08        -31.2390    23.8260    12.5880 nb         1 Q5Z      -0.665000
     28 N18        -40.0810    19.8940    17.3650 n7         1 Q5Z      -0.848400
     29 O27        -25.2900    22.6550    15.2710 os         1 Q5Z      -0.322600
     30 O30        -24.9310    19.7550    15.0310 os         1 Q5Z      -0.328100
     31 H131       -36.5050    23.4150    16.2420 ha         1 Q5Z       0.113500
     32 H1         -38.1970    21.8690    16.6650 hc         1 Q5Z       0.048700
     33 H171       -38.9870    19.0740    18.9960 h1         1 Q5Z       0.050700
     34 H172       -38.7980    18.2180    17.4560 h1         1 Q5Z       0.050700
     35 H202       -38.7110    20.8960    14.4070 hc         1 Q5Z       0.047200
     36 H201       -38.1990    19.3160    14.9790 hc         1 Q5Z       0.047200
     37 H211       -35.8220    19.2810    15.1630 ha         1 Q5Z       0.113500
     38 H221       -33.6220    19.8910    14.2280 ha         1 Q5Z       0.116000
     39 H243       -30.2670    20.7240    16.2110 hc         1 Q5Z       0.052700
     40 H242       -32.0030    20.8740    16.3830 hc         1 Q5Z       0.052700
     41 H241       -31.3350    19.6940    15.2430 hc         1 Q5Z       0.052700
     42 H281       -24.4710    24.5250    15.7160 h1         1 Q5Z       0.042367
     43 H282       -25.7100    24.5370    14.4440 h1         1 Q5Z       0.042367
     44 H283       -26.1810    24.3360    16.1550 h1         1 Q5Z       0.042367
     45 H011       -27.6690    16.2890    13.8660 h1         1 Q5Z       0.042367
     46 H013       -28.8910    17.3560    14.5890 h1         1 Q5Z       0.042367
     47 H012       -28.4300    17.5510    12.8750 h1         1 Q5Z       0.042367
     48 H041       -29.3120    19.5590    13.7690 ha         1 Q5Z       0.124500
     49 H071       -29.1910    23.5600    12.4510 h4         1 Q5Z       0.023100
     50 H091       -33.2900    23.9160    12.8550 h4         1 Q5Z       0.023100
     51 H121       -34.2960    24.0180    15.3190 ha         1 Q5Z       0.116000
     52 H161       -36.7540    19.3200    17.5070 hc         1 Q5Z       0.047200
     53 H2         -37.3380    20.6530    18.4810 hc         1 Q5Z       0.047200
     54 H192       -40.7350    20.8140    15.5740 h1         1 Q5Z       0.050700
     55 H191       -40.4460    19.0740    15.4350 h1         1 Q5Z       0.050700
     56 H251       -27.7820    23.4390    14.6820 ha         1 Q5Z       0.124500
     57 H312       -22.9220    19.6420    15.5840 h1         1 Q5Z       0.033700
     58 H313       -23.3650    21.1120    14.6990 h1         1 Q5Z       0.033700
     59 H311       -23.8490    20.9070    16.4110 h1         1 Q5Z       0.033700
     60 H3         -40.0920    20.8460    17.7530 hn         1 Q5Z       0.404000
     61 O02        -27.0140    18.2330    14.2640 os         1 Q5Z      -0.322600
@<TRIPOS>BOND
     1     1    17 ar  
     2     1    18 1   
     3     1    23 ar  
     4     2    19 ar  
     5     2    20 ar  
     6     2    31 1   
     7     3     5 1   
     8     3    20 1   
     9     3    21 1   
    10     3    32 1   
    11     4    21 1   
    12     4    28 1   
    13     4    33 1   
    14     4    34 1   
    15     5    22 1   
    16     5    35 1   
    17     5    36 1   
    18     6     7 ar  
    19     6    20 ar  
    20     6    37 1   
    21     7    18 ar  
    22     7    38 1   
    23     8    23 1   
    24     8    39 1   
    25     8    40 1   
    26     8    41 1   
    27     9    24 ar  
    28     9    25 ar  
    29     9    29 1   
    30    10    29 1   
    31    10    42 1   
    32    10    43 1   
    33    10    44 1   
    34    11    45 1   
    35    11    46 1   
    36    11    47 1   
    37    11    61 1   
    38    12    13 ar  
    39    12    25 ar  
    40    12    61 1   
    41    13    14 ar  
    42    13    48 1   
    43    14    15 1   
    44    14    24 ar  
    45    15    16 ar  
    46    15    23 ar  
    47    16    27 ar  
    48    16    49 1   
    49    17    27 ar  
    50    17    50 1   
    51    18    19 ar  
    52    19    51 1   
    53    21    52 1   
    54    21    53 1   
    55    22    28 1   
    56    22    54 1   
    57    22    55 1   
    58    24    56 1   
    59    25    30 1   
    60    26    30 1   
    61    26    57 1   
    62    26    58 1   
    63    26    59 1   
    64    28    60 1   
@<TRIPOS>SUBSTRUCTURE
     1 Q5Z         1 TEMP              0 ****  ****    0 ROOT
