@<TRIPOS>MOLECULE
Q60
   48    50     1     0     0
SMALL
No Charge or Current Charge


@<TRIPOS>ATOM
      1 N1           8.7440    -4.0610    21.8130 ns         1 Q60      -0.508900
      2 N3           6.6500     1.4120    18.6270 nb         1 Q60      -0.663000
      3 C4           8.4090    -3.6600    20.5420 c          1 Q60       0.642100
      4 C5           9.6520    -1.5020    21.0510 c3         1 Q60       0.104000
      5 C6          11.1770    -1.6940    20.9520 c3         1 Q60      -0.056100
      6 C7          11.9280    -0.7610    21.8920 ca         1 Q60      -0.087300
      7 C8          12.3750    -1.2210    23.1460 ca         1 Q60      -0.107000
      8 C10         13.3040     0.9760    23.6350 ca         1 Q60      -0.107000
      9 C13          8.5790    -1.8680    18.7960 c3         1 Q60       0.159300
     10 C15          6.0970    -1.3330    19.0140 ca         1 Q60      -0.057000
     11 C17          5.3840     0.9750    18.8250 ca         1 Q60       0.335900
     12 O            7.7330    -4.3640    19.8100 o          1 Q60      -0.632100
     13 C3           8.2790    -5.3080    22.4400 c3         1 Q60       0.091700
     14 C2           6.8460    -5.2590    22.9170 cc         1 Q60       0.181300
     15 C1           6.0110    -4.1850    22.9820 cd         1 Q60      -0.211000
     16 N4           6.2120    -6.3820    23.3690 nc         1 Q60      -0.352000
     17 N5           4.9920    -6.0580    23.7170 nd         1 Q60      -0.199800
     18 N            4.8460    -4.7150    23.4870 na         1 Q60       0.120800
     19 C            3.5880    -4.0130    23.7680 c3         1 Q60       0.065900
     20 N2           8.8960    -2.4000    20.1410 n          1 Q60      -0.436800
     21 C14          7.4160    -0.8880    18.8100 ca         1 Q60      -0.158300
     22 C18          7.6410     0.4900    18.6220 ca         1 Q60       0.336900
     23 C16          5.0670    -0.3790    19.0220 ca         1 Q60      -0.168000
     24 C12         12.1730     0.5750    21.5170 ca         1 Q60      -0.107000
     25 C11         12.8590     1.4400    22.3860 ca         1 Q60      -0.106500
     26 C9          13.0620    -0.3550    24.0150 ca         1 Q60      -0.106500
     27 H1           9.3210    -3.4320    22.3530 hn         1 Q60       0.304500
     28 H2           9.4170    -0.4610    20.7930 h1         1 Q60       0.049700
     29 H3           9.3250    -1.6420    22.0890 h1         1 Q60       0.049700
     30 H4          11.4240    -2.7390    21.1730 hc         1 Q60       0.058700
     31 H5          11.4950    -1.5180    19.9170 hc         1 Q60       0.058700
     32 H6          12.1910    -2.2490    23.4490 ha         1 Q60       0.110000
     33 H7          13.8360     1.6460    24.3080 ha         1 Q60       0.115000
     34 H8           8.3490    -2.6910    18.1070 h1         1 Q60       0.072700
     35 H9           9.4720    -1.3700    18.3950 h1         1 Q60       0.072700
     36 H11          4.6030     1.7340    18.8270 h4         1 Q60       0.020100
     37 H12          8.3880    -6.1310    21.7210 h1         1 Q60       0.079200
     38 H13          8.9270    -5.5310    23.2980 h1         1 Q60       0.079200
     39 H14          6.1470    -3.1450    22.7190 h4         1 Q60       0.161000
     40 H15          3.3690    -4.0710    24.8400 h1         1 Q60       0.064033
     41 H16          3.6760    -2.9610    23.4710 h1         1 Q60       0.064033
     42 H17          2.7730    -4.4820    23.2030 h1         1 Q60       0.064033
     43 H18          8.6490     0.8720    18.4630 h4         1 Q60       0.017100
     44 H19          4.0340    -0.6790    19.1770 ha         1 Q60       0.120000
     45 H20         11.8300     0.9430    20.5520 ha         1 Q60       0.110000
     46 H21         13.0450     2.4710    22.0910 ha         1 Q60       0.114500
     47 H22         13.4050    -0.7160    24.9820 ha         1 Q60       0.114500
     48 H10          5.8770    -2.3880    19.1650 ha         1 Q60       0.128000
@<TRIPOS>BOND
     1     1     3 1   
     2     1    13 1   
     3     1    27 1   
     4     2    11 ar  
     5     2    22 ar  
     6     3    12 2   
     7     3    20 1   
     8     4     5 1   
     9     4    20 1   
    10     4    28 1   
    11     4    29 1   
    12     5     6 1   
    13     5    30 1   
    14     5    31 1   
    15     6     7 ar  
    16     6    24 ar  
    17     7    26 ar  
    18     7    32 1   
    19     8    25 ar  
    20     8    26 ar  
    21     8    33 1   
    22     9    20 1   
    23     9    21 1   
    24     9    34 1   
    25     9    35 1   
    26    10    21 ar  
    27    10    23 ar  
    28    10    48 1   
    29    11    23 ar  
    30    11    36 1   
    31    13    14 1   
    32    13    37 1   
    33    13    38 1   
    34    14    15 2   
    35    14    16 1   
    36    15    18 1   
    37    15    39 1   
    38    16    17 2   
    39    17    18 1   
    40    18    19 1   
    41    19    40 1   
    42    19    41 1   
    43    19    42 1   
    44    21    22 ar  
    45    22    43 1   
    46    23    44 1   
    47    24    25 ar  
    48    24    45 1   
    49    25    46 1   
    50    26    47 1   
@<TRIPOS>SUBSTRUCTURE
     1 Q60         1 TEMP              0 ****  ****    0 ROOT
