@<TRIPOS>MOLECULE
Q60
   48    50     1     0     0
SMALL
abcg2


@<TRIPOS>ATOM
      1 N1           8.9590    -4.2560    21.6960 ns         1 Q60      -0.508900
      2 N3           6.5090     1.1660    18.2970 nb         1 Q60      -0.663000
      3 C4           8.5370    -3.7790    20.4820 c          1 Q60       0.642100
      4 C5           9.6120    -1.5970    21.0550 c3         1 Q60       0.104000
      5 C6          11.1400    -1.7320    20.9580 c3         1 Q60      -0.056100
      6 C7          11.8270    -0.7760    21.8940 ca         1 Q60      -0.087300
      7 C8          12.0960    -1.1450    23.2140 ca         1 Q60      -0.107000
      8 C10         13.0090     1.0380    23.6780 ca         1 Q60      -0.107000
      9 C13          8.5450    -1.9680    18.8520 c3         1 Q60       0.159300
     10 C15          6.2220    -1.2810    19.5990 ca         1 Q60      -0.057000
     11 C17          5.3860     0.8620    18.9520 ca         1 Q60       0.335900
     12 O            7.8760    -4.4910    19.7160 o          1 Q60      -0.632100
     13 C3           8.3570    -5.4520    22.2520 c3         1 Q60       0.091700
     14 C2           6.9460    -5.2410    22.7160 cc         1 Q60       0.181300
     15 C1           6.2340    -4.0730    22.8620 cd         1 Q60      -0.211000
     16 N4           6.1370    -6.2700    23.0760 nc         1 Q60      -0.352000
     17 N5           4.9700    -5.7950    23.4360 nd         1 Q60      -0.199800
     18 N            5.0200    -4.4660    23.3070 na         1 Q60       0.120800
     19 C            3.8630    -3.6410    23.6100 c3         1 Q60       0.065900
     20 N2           8.8950    -2.4980    20.1630 n          1 Q60      -0.436800
     21 C14          7.3990    -0.9870    18.9140 ca         1 Q60      -0.158300
     22 C18          7.4860     0.2530    18.2880 ca         1 Q60       0.336900
     23 C16          5.2000    -0.3450    19.6180 ca         1 Q60      -0.168000
     24 C12         12.1580     0.5160    21.4830 ca         1 Q60      -0.107000
     25 C11         12.7450     1.4170    22.3650 ca         1 Q60      -0.106500
     26 C9          12.6830    -0.2480    24.1000 ca         1 Q60      -0.106500
     27 H1           9.3810    -3.6270    22.3560 hn         1 Q60       0.304500
     28 H2           9.3220    -0.5800    20.7910 h1         1 Q60       0.049700
     29 H3           9.2820    -1.7400    22.0850 h1         1 Q60       0.049700
     30 H4          11.4240    -2.7600    21.1950 hc         1 Q60       0.058700
     31 H5          11.4430    -1.5360    19.9270 hc         1 Q60       0.058700
     32 H6          11.8450    -2.1460    23.5470 ha         1 Q60       0.110000
     33 H7          13.4680     1.7370    24.3660 ha         1 Q60       0.115000
     34 H8           8.2840    -2.8090    18.2130 h1         1 Q60       0.072700
     35 H9           9.4210    -1.4800    18.4200 h1         1 Q60       0.072700
     36 H11          4.6060     1.6150    18.9520 h4         1 Q60       0.020100
     37 H12          8.3760    -6.2470    21.5080 h1         1 Q60       0.079200
     38 H13          8.9820    -5.7740    23.0870 h1         1 Q60       0.079200
     39 H14          6.4780    -3.0410    22.6830 h4         1 Q60       0.161000
     40 H15          3.0840    -4.2920    23.9970 h1         1 Q60       0.064033
     41 H16          4.1280    -2.8960    24.3580 h1         1 Q60       0.064033
     42 H17          3.5140    -3.1450    22.7060 h1         1 Q60       0.064033
     43 H18          8.3940     0.5230    17.7580 h4         1 Q60       0.017100
     44 H19          4.2720    -0.5400    20.1390 ha         1 Q60       0.120000
     45 H20         11.9560     0.8170    20.4610 ha         1 Q60       0.110000
     46 H21         13.0000     2.4140    22.0270 ha         1 Q60       0.114500
     47 H22         12.8880    -0.5530    25.1190 ha         1 Q60       0.114500
     48 H10          6.1130    -2.2280    20.1120 ha         1 Q60       0.128000
@<TRIPOS>BOND
     1     1     3 1   
     2     1    13 1   
     3     1    27 1   
     4     2    11 ar  
     5     2    22 ar  
     6     3    12 2   
     7     3    20 1   
     8     4     5 1   
     9     4    20 1   
    10     4    28 1   
    11     4    29 1   
    12     5     6 1   
    13     5    30 1   
    14     5    31 1   
    15     6     7 ar  
    16     6    24 ar  
    17     7    26 ar  
    18     7    32 1   
    19     8    25 ar  
    20     8    26 ar  
    21     8    33 1   
    22     9    20 1   
    23     9    21 1   
    24     9    34 1   
    25     9    35 1   
    26    10    21 ar  
    27    10    23 ar  
    28    10    48 1   
    29    11    23 ar  
    30    11    36 1   
    31    13    14 1   
    32    13    37 1   
    33    13    38 1   
    34    14    15 2   
    35    14    16 1   
    36    15    18 1   
    37    15    39 1   
    38    16    17 2   
    39    17    18 1   
    40    18    19 1   
    41    19    40 1   
    42    19    41 1   
    43    19    42 1   
    44    21    22 ar  
    45    22    43 1   
    46    23    44 1   
    47    24    25 ar  
    48    24    45 1   
    49    25    46 1   
    50    26    47 1   
@<TRIPOS>SUBSTRUCTURE
     1 Q60         1 TEMP              0 ****  ****    0 ROOT
