@<TRIPOS>MOLECULE
Q62
   58    59     1     0     0
SMALL
No Charge or Current Charge


@<TRIPOS>ATOM
      1 C4         -92.6320    33.6440   126.0620 c          1 Q62       0.609100
      2 C14        -84.9410    30.9050   122.8080 ca         1 Q62      -0.129000
      3 C5         -91.7890    33.5780   124.7490 c3         1 Q62       0.012700
      4 C6         -92.1980    32.4000   123.8280 c3         1 Q62      -0.084400
      5 C11        -87.7200    30.8290   122.2100 ca         1 Q62      -0.152600
      6 C7         -91.9250    30.9980   124.4330 c3         1 Q62      -0.069400
      7 C8         -92.2570    29.8180   123.4860 c3         1 Q62      -0.092400
      8 C9         -91.4630    29.7940   122.1600 c3         1 Q62       0.097000
      9 C10        -89.1870    30.8380   121.7940 c          1 Q62       0.624700
     10 C12        -86.8330    31.6730   121.4950 ca         1 Q62      -0.096000
     11 C13        -85.4620    31.7140   121.7910 ca         1 Q62      -0.092000
     12 N1         -91.9210    33.7440   127.2370 ns         1 Q62      -0.495900
     13 N2         -90.0170    29.9080   122.3730 ns         1 Q62      -0.481900
     14 C3         -92.5200    33.7820   128.5640 c3         1 Q62       0.195100
     15 N3         -90.3290    33.5240   125.0140 ns         1 Q62      -0.524900
     16 C1         -90.5520    33.8510   130.3780 c1         1 Q62      -0.209000
     17 C2         -91.4530    33.8210   129.5700 c1         1 Q62      -0.176100
     18 O1         -93.8550    33.5880   126.0640 o          1 Q62      -0.591100
     19 O2         -89.6160    31.6270   120.9610 o          1 Q62      -0.646100
     20 C15        -85.7900    30.0630   123.5360 ca         1 Q62       0.123100
     21 O3         -85.2450    29.2560   124.4990 oh         1 Q62      -0.532100
     22 C16        -87.1810    30.0290   123.2620 ca         1 Q62       0.054100
     23 O4         -87.9810    29.2370   124.0480 oh         1 Q62      -0.585100
     24 C17        -89.3500    34.1250   124.2610 c          1 Q62       0.589700
     25 O5         -89.6410    34.8920   123.3540 o          1 Q62      -0.551100
     26 C18        -87.9090    33.8050   124.6170 ca         1 Q62      -0.193600
     27 C19        -86.8890    34.3910   123.8280 ca         1 Q62      -0.060000
     28 C20        -85.5300    34.1520   124.0950 ca         1 Q62      -0.110000
     29 C21        -85.1550    33.3170   125.1550 ca         1 Q62      -0.152000
     30 C22        -86.1440    32.7200   125.9500 ca         1 Q62       0.099100
     31 O6         -85.7810    31.9040   126.9900 oh         1 Q62      -0.531100
     32 C23        -87.5130    32.9580   125.6920 ca         1 Q62       0.141100
     33 O7         -88.4090    32.3490   126.5270 oh         1 Q62      -0.560100
     34 H2         -92.0050    34.5170   124.2220 h1         1 Q62       0.084700
     35 H3         -91.6520    32.5050   122.8830 hc         1 Q62       0.060700
     36 H4         -93.2640    32.4860   123.5800 hc         1 Q62       0.060700
     37 H5         -90.8740    30.9210   124.7380 hc         1 Q62       0.043200
     38 H6         -92.5170    30.8820   125.3490 hc         1 Q62       0.043200
     39 H7         -93.3300    29.8280   123.2570 hc         1 Q62       0.048700
     40 H8         -92.0640    28.8810   124.0230 hc         1 Q62       0.048700
     41 H9         -91.8130    30.6110   121.5160 h1         1 Q62       0.054700
     42 H10        -91.6660    28.8520   121.6330 h1         1 Q62       0.054700
     43 H11        -87.2060    32.3050   120.6920 ha         1 Q62       0.129000
     44 H12        -84.8030    32.3690   121.2250 ha         1 Q62       0.121000
     45 H13        -90.9160    33.8250   127.1640 hn         1 Q62       0.317500
     46 H14        -89.5730    29.3100   123.0620 hn         1 Q62       0.327500
     47 H15        -93.1530    34.6750   128.6570 h1         1 Q62       0.064700
     48 H16        -93.1390    32.8880   128.7140 h1         1 Q62       0.064700
     49 H17        -89.9760    32.8580   125.6960 hn         1 Q62       0.348500
     50 H18        -89.7440    33.8770   131.0830 ha         1 Q62       0.254000
     51 H19        -85.5350    28.3320   124.3280 ho         1 Q62       0.486000
     52 H20        -87.5400    29.1210   124.9210 ho         1 Q62       0.498000
     53 H21        -87.1450    35.0410   122.9930 ha         1 Q62       0.135000
     54 H22        -84.7670    34.6150   123.4720 ha         1 Q62       0.122000
     55 H23        -84.1010    33.1350   125.3510 ha         1 Q62       0.118000
     56 H24        -84.8040    31.8030   126.9830 ho         1 Q62       0.469000
     57 H25        -87.8620    31.8550   127.1810 ho         1 Q62       0.485000
     58 H1         -83.8760    30.9280   123.0290 ha         1 Q62       0.131000
@<TRIPOS>BOND
     1     1     3 1   
     2     1    12 1   
     3     1    18 2   
     4     2    11 ar  
     5     2    20 ar  
     6     2    58 1   
     7     3     4 1   
     8     3    15 1   
     9     3    34 1   
    10     4     6 1   
    11     4    35 1   
    12     4    36 1   
    13     5     9 1   
    14     5    10 ar  
    15     5    22 ar  
    16     6     7 1   
    17     6    37 1   
    18     6    38 1   
    19     7     8 1   
    20     7    39 1   
    21     7    40 1   
    22     8    13 1   
    23     8    41 1   
    24     8    42 1   
    25     9    13 1   
    26     9    19 2   
    27    10    11 ar  
    28    10    43 1   
    29    11    44 1   
    30    12    14 1   
    31    12    45 1   
    32    13    46 1   
    33    14    17 1   
    34    14    47 1   
    35    14    48 1   
    36    15    24 1   
    37    15    49 1   
    38    16    17 3   
    39    16    50 1   
    40    20    21 1   
    41    20    22 ar  
    42    21    51 1   
    43    22    23 1   
    44    23    52 1   
    45    24    25 2   
    46    24    26 1   
    47    26    27 ar  
    48    26    32 ar  
    49    27    28 ar  
    50    27    53 1   
    51    28    29 ar  
    52    28    54 1   
    53    29    30 ar  
    54    29    55 1   
    55    30    31 1   
    56    30    32 ar  
    57    31    56 1   
    58    32    33 1   
    59    33    57 1   
@<TRIPOS>SUBSTRUCTURE
     1 Q62         1 TEMP              0 ****  ****    0 ROOT
