@<TRIPOS>MOLECULE
Q62
   58    59     1     0     0
SMALL
abcg2


@<TRIPOS>ATOM
      1 C4         -92.2980    33.7010   126.2050 c          1 Q62       0.609100
      2 C14        -84.8720    29.6630   122.2640 ca         1 Q62      -0.129000
      3 C5         -91.6700    33.6220   124.8190 c3         1 Q62       0.012700
      4 C6         -92.2720    32.4630   124.0140 c3         1 Q62      -0.084400
      5 C11        -87.5420    30.4250   122.4260 ca         1 Q62      -0.152600
      6 C7         -91.8940    31.0640   124.5000 c3         1 Q62      -0.069400
      7 C8         -92.1530    29.9770   123.4620 c3         1 Q62      -0.092400
      8 C9         -91.3000    30.0690   122.2000 c3         1 Q62       0.097000
      9 C10        -88.9770    30.8560   122.4630 c          1 Q62       0.624700
     10 C12        -86.7770    30.7940   121.3200 ca         1 Q62      -0.096000
     11 C13        -85.4520    30.4010   121.2420 ca         1 Q62      -0.092000
     12 N1         -91.6870    33.0390   127.1990 ns         1 Q62      -0.495900
     13 N2         -89.8770    29.8740   122.4070 ns         1 Q62      -0.481900
     14 C3         -92.1910    33.0510   128.5520 c3         1 Q62       0.195100
     15 N3         -90.2250    33.4710   124.8380 ns         1 Q62      -0.524900
     16 C1         -91.6550    35.3170   129.8470 c1         1 Q62      -0.209000
     17 C2         -91.9000    34.2990   129.2580 c1         1 Q62      -0.176100
     18 O1         -93.3530    34.2940   126.3600 o          1 Q62      -0.591100
     19 O2         -89.2670    32.0520   122.4730 o          1 Q62      -0.646100
     20 C15        -85.6210    29.3230   123.3810 ca         1 Q62       0.123100
     21 O3         -85.0420    28.6350   124.3810 oh         1 Q62      -0.532100
     22 C16        -86.9660    29.7040   123.4610 ca         1 Q62       0.054100
     23 O4         -87.6610    29.3390   124.5770 oh         1 Q62      -0.585100
     24 C17        -89.4310    34.4840   125.3060 c          1 Q62       0.589700
     25 O5         -89.8810    35.4840   125.8270 o          1 Q62      -0.551100
     26 C18        -87.9660    34.2360   125.1710 ca         1 Q62      -0.193600
     27 C19        -87.1390    35.3170   124.8570 ca         1 Q62      -0.060000
     28 C20        -85.7750    35.1410   124.7530 ca         1 Q62      -0.110000
     29 C21        -85.2130    33.8920   125.0000 ca         1 Q62      -0.152000
     30 C22        -86.0130    32.8170   125.3440 ca         1 Q62       0.099100
     31 O6         -85.5420    31.5910   125.6390 oh         1 Q62      -0.531100
     32 C23        -87.4030    32.9820   125.4090 ca         1 Q62       0.141100
     33 O7         -88.1140    31.8800   125.7580 oh         1 Q62      -0.560100
     34 H2         -91.9480    34.5550   124.3210 h1         1 Q62       0.084700
     35 H3         -91.9500    32.6060   122.9800 hc         1 Q62       0.060700
     36 H4         -93.3580    32.5750   124.0060 hc         1 Q62       0.060700
     37 H5         -90.8400    31.0160   124.7890 hc         1 Q62       0.043200
     38 H6         -92.4530    30.8210   125.4060 hc         1 Q62       0.043200
     39 H7         -93.2010    30.0060   123.1480 hc         1 Q62       0.048700
     40 H8         -91.9980    28.9980   123.9230 hc         1 Q62       0.048700
     41 H9         -91.4440    31.0260   121.7000 h1         1 Q62       0.054700
     42 H10        -91.6260    29.3010   121.4980 h1         1 Q62       0.054700
     43 H11        -87.2260    31.3660   120.5190 ha         1 Q62       0.129000
     44 H12        -84.8600    30.6710   120.3770 ha         1 Q62       0.121000
     45 H13        -90.7990    32.5970   127.0410 hn         1 Q62       0.317500
     46 H14        -89.5370    28.9250   122.3830 hn         1 Q62       0.327500
     47 H15        -93.2670    32.8720   128.5520 h1         1 Q62       0.064700
     48 H16        -91.7340    32.2170   129.0850 h1         1 Q62       0.064700
     49 H17        -89.8600    32.9900   124.0100 hn         1 Q62       0.348500
     50 H18        -91.4370    36.2220   130.3650 ha         1 Q62       0.254000
     51 H19        -85.6930    28.4900   125.0810 ho         1 Q62       0.486000
     52 H20        -87.8090    30.1290   125.1260 ho         1 Q62       0.498000
     53 H21        -87.5800    36.2890   124.6810 ha         1 Q62       0.135000
     54 H22        -85.1360    35.9720   124.4880 ha         1 Q62       0.122000
     55 H23        -84.1390    33.7590   124.9340 ha         1 Q62       0.118000
     56 H24        -84.5890    31.5540   125.5040 ho         1 Q62       0.469000
     57 H25        -89.0620    32.0760   125.7090 ho         1 Q62       0.485000
     58 H1         -83.8340    29.3630   122.2060 ha         1 Q62       0.131000
@<TRIPOS>BOND
     1     1     3 1   
     2     1    12 1   
     3     1    18 2   
     4     2    11 ar  
     5     2    20 ar  
     6     2    58 1   
     7     3     4 1   
     8     3    15 1   
     9     3    34 1   
    10     4     6 1   
    11     4    35 1   
    12     4    36 1   
    13     5     9 1   
    14     5    10 ar  
    15     5    22 ar  
    16     6     7 1   
    17     6    37 1   
    18     6    38 1   
    19     7     8 1   
    20     7    39 1   
    21     7    40 1   
    22     8    13 1   
    23     8    41 1   
    24     8    42 1   
    25     9    13 1   
    26     9    19 2   
    27    10    11 ar  
    28    10    43 1   
    29    11    44 1   
    30    12    14 1   
    31    12    45 1   
    32    13    46 1   
    33    14    17 1   
    34    14    47 1   
    35    14    48 1   
    36    15    24 1   
    37    15    49 1   
    38    16    17 3   
    39    16    50 1   
    40    20    21 1   
    41    20    22 ar  
    42    21    51 1   
    43    22    23 1   
    44    23    52 1   
    45    24    25 2   
    46    24    26 1   
    47    26    27 ar  
    48    26    32 ar  
    49    27    28 ar  
    50    27    53 1   
    51    28    29 ar  
    52    28    54 1   
    53    29    30 ar  
    54    29    55 1   
    55    30    31 1   
    56    30    32 ar  
    57    31    56 1   
    58    32    33 1   
    59    33    57 1   
@<TRIPOS>SUBSTRUCTURE
     1 Q62         1 TEMP              0 ****  ****    0 ROOT
