@<TRIPOS>MOLECULE
Q63
   27    27     1     0     0
SMALL
abcg2


@<TRIPOS>ATOM
      1 C4         -34.6160   -46.1800    25.2510 c3         1 Q63       0.124000
      2 C5         -33.2170   -45.6080    25.5170 c3         1 Q63       0.104300
      3 C6         -32.2780   -45.8670    24.3440 c          1 Q63       0.579100
      4 C7         -31.2590   -47.6090    23.0810 c3         1 Q63       0.169600
      5 C8         -31.2680   -49.1180    23.0700 c3         1 Q63      -0.098100
      6 N          -36.6080   -45.1390    26.2090 nc         1 Q63      -0.341300
      7 O          -37.2110   -45.0260    27.4680 os         1 Q63      -0.089700
      8 C1         -36.4690   -45.6960    28.3780 cc         1 Q63       0.206300
      9 C2         -35.3950   -46.2480    27.7580 cd         1 Q63      -0.249000
     10 C3         -35.5360   -45.8630    26.3980 cd         1 Q63       0.242300
     11 F          -33.3130   -44.2330    25.7060 f          1 Q63      -0.236000
     12 O1         -35.1130   -45.7490    24.0010 oh         1 Q63      -0.634000
     13 O2         -31.7530   -45.0020    23.6890 o          1 Q63      -0.449000
     14 O3         -32.1260   -47.1740    24.1700 os         1 Q63      -0.459100
     15 H          -34.5040   -47.2630    25.1820 h1         1 Q63       0.106700
     16 H1         -32.7910   -46.0450    26.4220 h1         1 Q63       0.085700
     17 H7         -31.6460   -47.1880    22.1530 h1         1 Q63       0.054200
     18 H8         -30.2630   -47.2050    23.2620 h1         1 Q63       0.054200
     19 H10        -30.6240   -49.4730    22.2650 hc         1 Q63       0.050033
     20 H9         -30.8920   -49.5170    24.0130 hc         1 Q63       0.050033
     21 H11        -32.2760   -49.5000    22.9010 hc         1 Q63       0.050033
     22 H4         -37.0290   -44.6710    30.1550 hc         1 Q63       0.066033
     23 H3         -37.9400   -46.1520    29.8450 hc         1 Q63       0.066033
     24 H2         -36.2600   -46.2500    30.4070 hc         1 Q63       0.066033
     25 H5         -34.6140   -46.8420    28.2020 ha         1 Q63       0.152000
     26 H6         -35.3570   -44.8150    24.0630 ho         1 Q63       0.470000
     27 C          -36.9520   -45.6930    29.7780 c3         1 Q63      -0.139400
@<TRIPOS>BOND
     1     1     2 1   
     2     1    10 1   
     3     1    12 1   
     4     1    15 1   
     5     2     3 1   
     6     2    11 1   
     7     2    16 1   
     8     3    13 2   
     9     3    14 1   
    10     4     5 1   
    11     4    14 1   
    12     4    17 1   
    13     4    18 1   
    14     5    19 1   
    15     5    20 1   
    16     5    21 1   
    17     6     7 1   
    18     6    10 2   
    19     7     8 1   
    20     8     9 2   
    21     8    27 1   
    22     9    10 1   
    23     9    25 1   
    24    12    26 1   
    25    22    27 1   
    26    23    27 1   
    27    24    27 1   
@<TRIPOS>SUBSTRUCTURE
     1 Q63         1 TEMP              0 ****  ****    0 ROOT
