@<TRIPOS>MOLECULE
Q63
   27    27     1     0     0
SMALL
No Charge or Current Charge


@<TRIPOS>ATOM
      1 C4         -34.7200   -45.8490    25.0940 c3         1 Q63       0.124000
      2 C5         -33.2830   -45.2690    25.1980 c3         1 Q63       0.104300
      3 C6         -32.3780   -45.7770    24.0550 c          1 Q63       0.579100
      4 C7         -31.2650   -47.7400    23.2030 c3         1 Q63       0.169600
      5 C8         -31.1590   -49.2300    23.5660 c3         1 Q63      -0.098100
      6 N          -36.2900   -44.5080    26.4820 nc         1 Q63      -0.341300
      7 O          -36.8630   -44.6240    27.8040 os         1 Q63      -0.089700
      8 C1         -36.3890   -45.7750    28.3840 cc         1 Q63       0.206300
      9 C2         -35.5540   -46.3900    27.5090 cd         1 Q63      -0.249000
     10 C3         -35.5220   -45.5810    26.3580 cd         1 Q63       0.242300
     11 F          -33.3220   -43.9070    25.2600 f          1 Q63      -0.236000
     12 O1         -35.3850   -45.3490    23.9100 oh         1 Q63      -0.634000
     13 O2         -31.8710   -45.0610    23.1980 o          1 Q63      -0.449000
     14 O3         -32.1220   -47.1220    24.1780 os         1 Q63      -0.459100
     15 H          -34.6230   -46.9420    25.0190 h1         1 Q63       0.106700
     16 H1         -32.8320   -45.6320    26.1290 h1         1 Q63       0.085700
     17 H7         -31.6820   -47.6380    22.1920 h1         1 Q63       0.054200
     18 H8         -30.2640   -47.2880    23.2160 h1         1 Q63       0.054200
     19 H10        -30.5140   -49.7500    22.8490 hc         1 Q63       0.050033
     20 H9         -30.7320   -49.3540    24.5680 hc         1 Q63       0.050033
     21 H11        -32.1480   -49.7030    23.5450 hc         1 Q63       0.050033
     22 H4         -36.5400   -45.3650    30.4860 hc         1 Q63       0.066033
     23 H3         -37.9130   -46.2670    29.8140 hc         1 Q63       0.066033
     24 H2         -36.3630   -47.0850    30.0890 hc         1 Q63       0.066033
     25 H5         -35.0190   -47.3190    27.6690 ha         1 Q63       0.152000
     26 H6         -35.7320   -44.4560    24.1410 ho         1 Q63       0.470000
     27 C          -36.8250   -46.1440    29.7700 c3         1 Q63      -0.139400
@<TRIPOS>BOND
     1     1     2 1   
     2     1    10 1   
     3     1    12 1   
     4     1    15 1   
     5     2     3 1   
     6     2    11 1   
     7     2    16 1   
     8     3    13 2   
     9     3    14 1   
    10     4     5 1   
    11     4    14 1   
    12     4    17 1   
    13     4    18 1   
    14     5    19 1   
    15     5    20 1   
    16     5    21 1   
    17     6     7 1   
    18     6    10 2   
    19     7     8 1   
    20     8     9 2   
    21     8    27 1   
    22     9    10 1   
    23     9    25 1   
    24    12    26 1   
    25    22    27 1   
    26    23    27 1   
    27    24    27 1   
@<TRIPOS>SUBSTRUCTURE
     1 Q63         1 TEMP              0 ****  ****    0 ROOT
