@<TRIPOS>MOLECULE
Q64
   40    41     1     0     0
SMALL
abcg2


@<TRIPOS>ATOM
      1 C17          2.0360     9.3380    85.2450 ca         1 Q64      -0.085000
      2 C16          0.6780     9.0710    85.1210 ca         1 Q64      -0.112500
      3 C18          2.8400     9.3720    84.1130 ca         1 Q64      -0.112500
      4 C15          0.1260     8.8170    83.8760 ca         1 Q64      -0.083000
      5 C19          2.2860     9.1320    82.8650 ca         1 Q64      -0.083000
      6 C5          -0.1990     4.1570    84.0350 ca         1 Q64      -0.179500
      7 C21         -2.4460     5.0370    84.0940 ca         1 Q64      -0.179500
      8 C4          -0.5130     3.2530    85.0250 ca         1 Q64       0.022500
      9 C22         -2.7590     4.1250    85.0910 ca         1 Q64       0.022500
     10 C14          0.9280     8.8260    82.7310 ca         1 Q64      -0.103800
     11 C6          -1.1580     5.0600    83.5570 ca         1 Q64       0.043000
     12 C3          -1.8010     3.2390    85.5520 ca         1 Q64      -0.311500
     13 C13          0.4280     8.5510    81.3860 ce         1 Q64      -0.050200
     14 C9          -0.5830     7.7490    81.0160 cf         1 Q64      -0.278400
     15 C10         -0.9570     7.5470    79.5950 c          1 Q64       0.579300
     16 C8          -1.4160     6.9660    81.9860 c          1 Q64       0.632300
     17 C11         -0.2630     8.3540    78.5350 c3         1 Q64      -0.194100
     18 N23         -2.0760     0.6600    86.0480 n8         1 Q64      -1.008100
     19 N7          -0.7420     5.9360    82.5610 ns         1 Q64      -0.138000
     20 O12         -1.8060     6.7230    79.3190 o          1 Q64      -0.500100
     21 O20         -2.5750     7.2510    82.2110 o          1 Q64      -0.548100
     22 O1          -1.1170     2.0930    87.8290 o          1 Q64      -0.548000
     23 O24         -3.5400     2.3970    87.3050 o          1 Q64      -0.548000
     24 S2          -2.1890     2.1020    86.8430 sy         1 Q64       1.133600
     25 H1           2.4630     9.5340    86.2200 ha         1 Q64       0.120000
     26 H2           0.0420     9.0670    85.9960 ha         1 Q64       0.121500
     27 H3           3.8950     9.5910    84.2000 ha         1 Q64       0.121500
     28 H4          -0.9410     8.6550    83.8050 ha         1 Q64       0.121000
     29 H5           2.9140     9.1680    81.9830 ha         1 Q64       0.121000
     30 H6           0.8030     4.1690    83.6260 ha         1 Q64       0.135000
     31 H7          -3.2080     5.7130    83.7480 ha         1 Q64       0.135000
     32 H8           0.2450     2.5660    85.3770 ha         1 Q64       0.137000
     33 H9          -3.7610     4.1190    85.4960 ha         1 Q64       0.137000
     34 H10          0.9840     9.0470    80.5970 ha         1 Q64       0.183000
     35 H11         -0.6660     8.1040    77.5570 hc         1 Q64       0.064033
     36 H12         -0.3900     9.4230    78.7070 hc         1 Q64       0.064033
     37 H13          0.8090     8.1520    78.5290 hc         1 Q64       0.064033
     38 H14         -1.9650    -0.1160    86.6940 hn         1 Q64       0.473500
     39 H15         -2.8560     0.4910    85.4210 hn         1 Q64       0.473500
     40 H16          0.2110     5.8120    82.2520 hn         1 Q64       0.158000
@<TRIPOS>BOND
     1     1     2 ar  
     2     1     3 ar  
     3     1    25 1   
     4     2     4 ar  
     5     2    26 1   
     6     3     5 ar  
     7     3    27 1   
     8     4    10 ar  
     9     4    28 1   
    10     5    10 ar  
    11     5    29 1   
    12     6     8 ar  
    13     6    11 ar  
    14     6    30 1   
    15     7     9 ar  
    16     7    11 ar  
    17     7    31 1   
    18     8    12 ar  
    19     8    32 1   
    20     9    12 ar  
    21     9    33 1   
    22    10    13 1   
    23    11    19 1   
    24    12    24 1   
    25    13    14 2   
    26    13    34 1   
    27    14    15 1   
    28    14    16 1   
    29    15    17 1   
    30    15    20 2   
    31    16    19 1   
    32    16    21 2   
    33    17    35 1   
    34    17    36 1   
    35    17    37 1   
    36    18    24 1   
    37    18    38 1   
    38    18    39 1   
    39    19    40 1   
    40    22    24 2   
    41    23    24 2   
@<TRIPOS>SUBSTRUCTURE
     1 Q64         1 TEMP              0 ****  ****    0 ROOT
