@<TRIPOS>MOLECULE
Q64
   40    41     1     0     0
SMALL
No Charge or Current Charge


@<TRIPOS>ATOM
      1 C17          2.1620     8.3170    85.1470 ca         1 Q64      -0.085000
      2 C16          0.8630     8.8250    84.9800 ca         1 Q64      -0.112500
      3 C18          2.8850     7.8600    84.0320 ca         1 Q64      -0.112500
      4 C15          0.2860     8.8720    83.6990 ca         1 Q64      -0.083000
      5 C19          2.3080     7.9070    82.7510 ca         1 Q64      -0.083000
      6 C5          -0.3500     5.1290    84.7060 ca         1 Q64      -0.179500
      7 C21         -2.4270     4.5640    83.5860 ca         1 Q64      -0.179500
      8 C4          -0.6450     4.2150    85.7310 ca         1 Q64       0.022500
      9 C22         -2.7290     3.6470    84.6080 ca         1 Q64       0.022500
     10 C14          1.0030     8.4040    82.5810 ca         1 Q64      -0.103800
     11 C6          -1.2340     5.3180    83.6280 ca         1 Q64       0.043000
     12 C3          -1.8390     3.4720    85.6850 ca         1 Q64      -0.311500
     13 C13          0.3930     8.4420    81.2250 ce         1 Q64      -0.050200
     14 C9          -0.7240     7.7990    80.7220 cf         1 Q64      -0.278400
     15 C10         -1.1900     8.0720    79.3110 c          1 Q64       0.579300
     16 C8          -1.5120     6.8010    81.5400 c          1 Q64       0.632300
     17 C11         -0.5260     9.2000    78.5120 c3         1 Q64      -0.194100
     18 N23         -1.5570     0.9210    86.4460 n8         1 Q64      -1.008100
     19 N7          -0.8550     6.2620    82.6370 ns         1 Q64      -0.138000
     20 O12         -2.0740     7.4250    78.7650 o          1 Q64      -0.500100
     21 O20         -2.6580     6.4790    81.2530 o          1 Q64      -0.548100
     22 O1          -1.4600     2.6010    88.1990 o          1 Q64      -0.548000
     23 O24         -3.6530     2.0070    87.0210 o          1 Q64      -0.548000
     24 S2          -2.2230     2.3050    86.9890 sy         1 Q64       1.133600
     25 H1           2.6090     8.2800    86.1390 ha         1 Q64       0.120000
     26 H2           0.3030     9.1820    85.8420 ha         1 Q64       0.121500
     27 H3           3.8930     7.4700    84.1600 ha         1 Q64       0.121500
     28 H4          -0.7200     9.2690    83.5750 ha         1 Q64       0.121000
     29 H5           2.8730     7.5500    81.8920 ha         1 Q64       0.121000
     30 H6           0.5770     5.6970    84.7540 ha         1 Q64       0.135000
     31 H7          -3.1320     4.6640    82.7680 ha         1 Q64       0.135000
     32 H8           0.0570     4.0880    86.5540 ha         1 Q64       0.137000
     33 H9          -3.6530     3.0730    84.5550 ha         1 Q64       0.137000
     34 H10          0.9620     9.1130    80.5830 ha         1 Q64       0.183000
     35 H11         -1.0130     9.3670    77.5440 hc         1 Q64       0.064033
     36 H12         -0.5030    10.1150    79.1140 hc         1 Q64       0.064033
     37 H13          0.5340     8.9610    78.3690 hc         1 Q64       0.064033
     38 H14         -0.9990     0.6600    87.2550 hn         1 Q64       0.473500
     39 H15         -2.3540     0.2940    86.5260 hn         1 Q64       0.473500
     40 H16          0.0820     6.6200    82.7630 hn         1 Q64       0.158000
@<TRIPOS>BOND
     1     1     2 ar  
     2     1     3 ar  
     3     1    25 1   
     4     2     4 ar  
     5     2    26 1   
     6     3     5 ar  
     7     3    27 1   
     8     4    10 ar  
     9     4    28 1   
    10     5    10 ar  
    11     5    29 1   
    12     6     8 ar  
    13     6    11 ar  
    14     6    30 1   
    15     7     9 ar  
    16     7    11 ar  
    17     7    31 1   
    18     8    12 ar  
    19     8    32 1   
    20     9    12 ar  
    21     9    33 1   
    22    10    13 1   
    23    11    19 1   
    24    12    24 1   
    25    13    14 2   
    26    13    34 1   
    27    14    15 1   
    28    14    16 1   
    29    15    17 1   
    30    15    20 2   
    31    16    19 1   
    32    16    21 2   
    33    17    35 1   
    34    17    36 1   
    35    17    37 1   
    36    18    24 1   
    37    18    38 1   
    38    18    39 1   
    39    19    40 1   
    40    22    24 2   
    41    23    24 2   
@<TRIPOS>SUBSTRUCTURE
     1 Q64         1 TEMP              0 ****  ****    0 ROOT
