@<TRIPOS>MOLECULE
Q67
   45    48     1     0     0
SMALL
bcc


@<TRIPOS>ATOM
      1 O13         -1.2640    -1.2200     0.8340 o          1 Q67      -0.572100
      2 C12         -1.1520    -0.0160     0.6950 c          1 Q67       0.670100
      3 C10         -2.3670     0.9080     0.6620 c3         1 Q67       0.152500
      4 C11         -2.5550     1.5380     2.0480 c3         1 Q67      -0.126100
      5 N1          -3.4980     0.1300     0.2300 nu         1 Q67      -0.757600
      6 C4          -4.6960     0.6850    -0.1060 ca         1 Q67       0.214600
      7 C3          -4.8440     2.0550    -0.3680 ca         1 Q67      -0.212000
      8 C2          -6.0650     2.5830    -0.7440 ca         1 Q67      -0.072000
      9 C5          -5.8430    -0.1200    -0.2410 ca         1 Q67      -0.059600
     10 CL2         -5.7140    -1.8170     0.0650 cl         1 Q67      -0.086400
     11 C6          -7.0610     0.4280    -0.6170 ca         1 Q67       0.078400
     12 CL1         -8.4500    -0.5850    -0.7670 cl         1 Q67      -0.085400
     13 C1          -7.1900     1.7840    -0.8730 ca         1 Q67      -0.171000
     14 N2           0.0250     0.6420     0.6070 ns         1 Q67      -0.472100
     15 C15          1.3250     0.1130     0.6390 ca         1 Q67       0.057600
     16 C20          2.3210     0.8600     0.0180 ca         1 Q67      -0.121000
     17 C19          3.6170     0.3700     0.0720 ca         1 Q67       0.080400
     18 N3           4.7990     0.8700    -0.4340 nc         1 Q67      -0.566100
     19 C22          5.6890     0.0040    -0.0940 cd         1 Q67       0.589200
     20 O21          5.2220    -1.0530     0.6030 os         1 Q67      -0.269700
     21 C18          3.8900    -0.8300     0.7170 ca         1 Q67       0.012100
     22 C17          2.9240    -1.5880     1.3410 ca         1 Q67      -0.085000
     23 C16          1.6290    -1.0930     1.2970 ca         1 Q67      -0.118000
     24 C24          7.1150     0.0570    -0.3800 ca         1 Q67      -0.081900
     25 C29          7.6320     1.1250    -1.1090 ca         1 Q67      -0.207300
     26 C28          8.9920     1.1530    -1.3640 ca         1 Q67       0.394200
     27 N4           9.8370     0.2140    -0.9510 nb         1 Q67      -0.649000
     28 C26          9.3370    -0.8010    -0.2580 ca         1 Q67       0.394200
     29 C25          7.9920    -0.9310     0.0550 ca         1 Q67      -0.207300
     30 H1          -2.1760     1.6980    -0.0700 h1         1 Q67       0.067700
     31 H2          -2.6760     0.7660     2.8080 hc         1 Q67       0.053700
     32 H3          -1.7030     2.1620     2.3200 hc         1 Q67       0.053700
     33 H4          -3.4430     2.1700     2.0600 hc         1 Q67       0.053700
     34 H5          -3.5060    -0.8230     0.5610 hn         1 Q67       0.458800
     35 H6          -3.9950     2.7190    -0.2810 ha         1 Q67       0.132000
     36 H7          -6.1420     3.6450    -0.9380 ha         1 Q67       0.135000
     37 H8          -8.1440     2.1990    -1.1650 ha         1 Q67       0.152000
     38 H9          -0.0280     1.6290     0.4000 hn         1 Q67       0.320500
     39 H10          2.0950     1.7890    -0.4880 ha         1 Q67       0.151000
     40 H11          3.1480    -2.5150     1.8500 ha         1 Q67       0.158000
     41 H12          0.8510    -1.6520     1.7920 ha         1 Q67       0.167000
     42 H13          6.9930     1.9170    -1.4720 ha         1 Q67       0.160500
     43 H14          9.4170     1.9740    -1.9300 h4         1 Q67       0.025100
     44 H15         10.0400    -1.5580     0.0720 h4         1 Q67       0.025100
     45 H16          7.6580    -1.7880     0.6230 ha         1 Q67       0.160500
@<TRIPOS>BOND
     1     1     2 2   
     2     2     3 1   
     3     2    14 1   
     4     3     4 1   
     5     3     5 1   
     6     3    30 1   
     7     4    31 1   
     8     4    32 1   
     9     4    33 1   
    10     5     6 1   
    11     5    34 1   
    12     6     7 ar  
    13     6     9 ar  
    14     7     8 ar  
    15     7    35 1   
    16     8    13 ar  
    17     8    36 1   
    18     9    10 1   
    19     9    11 ar  
    20    11    12 1   
    21    11    13 ar  
    22    13    37 1   
    23    14    15 1   
    24    14    38 1   
    25    15    16 ar  
    26    15    23 ar  
    27    16    17 ar  
    28    16    39 1   
    29    17    18 1   
    30    17    21 ar  
    31    18    19 2   
    32    19    20 1   
    33    19    24 1   
    34    20    21 1   
    35    21    22 ar  
    36    22    23 ar  
    37    22    40 1   
    38    23    41 1   
    39    24    25 ar  
    40    24    29 ar  
    41    25    26 ar  
    42    25    42 1   
    43    26    27 ar  
    44    26    43 1   
    45    27    28 ar  
    46    28    29 ar  
    47    28    44 1   
    48    29    45 1   
@<TRIPOS>SUBSTRUCTURE
     1 Q67         1 TEMP              0 ****  ****    0 ROOT
