@<TRIPOS>MOLECULE
Q67
   45    48     1     0     0
SMALL
No Charge or Current Charge


@<TRIPOS>ATOM
      1 O13         -1.3060    -1.2400     1.5960 o          1 Q67      -0.572100
      2 C12         -1.1870    -0.1010     1.1490 c          1 Q67       0.603100
      3 C10         -2.4270     0.8440     0.9420 c3         1 Q67       0.152500
      4 C11         -2.9320     1.3990     2.2930 c3         1 Q67      -0.126100
      5 N1          -3.5590     0.1680     0.2340 nu         1 Q67      -0.951200
      6 C4          -4.7530     0.7570    -0.2130 ca         1 Q67       0.353000
      7 C3          -4.7680     2.1010    -0.6280 ca         1 Q67      -0.194000
      8 C2          -5.9580     2.6970    -1.0780 ca         1 Q67      -0.054000
      9 C5          -5.9460    -0.0020    -0.2600 ca         1 Q67       0.032000
     10 Cl2         -5.9440    -1.7010     0.2520 cl         1 Q67      -0.178000
     11 C6          -7.1380     0.6010    -0.7130 ca         1 Q67       0.170000
     12 Cl1         -8.6480    -0.3100    -0.7820 cl         1 Q67      -0.177000
     13 C1          -7.1420     1.9450    -1.1180 ca         1 Q67      -0.153000
     14 N2           0.0230     0.4510     0.7390 ns         1 Q67      -0.146000
     15 C15          1.3570    -0.0450     0.7570 ca         1 Q67      -0.035000
     16 C20          2.3480     0.7420     0.1180 ca         1 Q67      -0.103000
     17 C19          3.6760     0.2960     0.1130 ca         1 Q67       0.080400
     18 N3           4.7930     0.9130    -0.4560 nc         1 Q67      -0.566100
     19 C22          5.7560     0.0230    -0.1350 cd         1 Q67       0.589200
     20 O21          5.3200    -1.0670     0.5730 os         1 Q67      -0.269700
     21 C18          4.0000    -0.8860     0.7250 ca         1 Q67       0.012100
     22 C17          3.0730    -1.7010     1.3750 ca         1 Q67      -0.067000
     23 C16          1.7300    -1.2670     1.3880 ca         1 Q67      -0.100000
     24 C24          7.1920     0.1260    -0.4730 ca         1 Q67      -0.081900
     25 C29          7.6980     1.2270    -1.1990 ca         1 Q67      -0.124000
     26 C28          9.0690     1.2900    -1.5010 ca         1 Q67       0.328900
     27 N4           9.9520     0.3350    -1.1270 nb         1 Q67      -0.649000
     28 C26          9.4750    -0.7230    -0.4310 ca         1 Q67       0.328900
     29 C25          8.1200    -0.8660    -0.0860 ca         1 Q67      -0.124000
     30 H1          -2.0760     1.6900     0.3360 h1         1 Q67       0.067700
     31 H2          -3.3030     0.5900     2.9340 hc         1 Q67       0.053700
     32 H3          -2.1200     1.9110     2.8240 hc         1 Q67       0.053700
     33 H4          -3.7430     2.1210     2.1440 hc         1 Q67       0.053700
     34 H5          -3.6440    -0.8390     0.4100 hn         1 Q67       0.514000
     35 H6          -3.8580     2.6920    -0.6090 ha         1 Q67       0.114000
     36 H7          -5.9610     3.7380    -1.3960 ha         1 Q67       0.117000
     37 H8          -8.0650     2.4030    -1.4660 ha         1 Q67       0.134000
     38 H9          -0.0580     1.3860     0.3600 hn         1 Q67       0.154000
     39 H10          2.0900     1.6800    -0.3670 ha         1 Q67       0.133000
     40 H11          3.3750    -2.6310     1.8520 ha         1 Q67       0.140000
     41 H12          1.0000    -1.8860     1.8990 ha         1 Q67       0.149000
     42 H13          7.0440     2.0290    -1.5300 ha         1 Q67       0.142500
     43 H14          9.4740     2.1320    -2.0610 h4         1 Q67       0.025100
     44 H15         10.2030    -1.4800    -0.1400 h4         1 Q67       0.025100
     45 H16          7.8070    -1.7430     0.4750 ha         1 Q67       0.142500
@<TRIPOS>BOND
     1     1     2 2   
     2     2     3 1   
     3     2    14 1   
     4     3     4 1   
     5     3     5 1   
     6     3    30 1   
     7     4    31 1   
     8     4    32 1   
     9     4    33 1   
    10     5     6 1   
    11     5    34 1   
    12     6     7 ar  
    13     6     9 ar  
    14     7     8 ar  
    15     7    35 1   
    16     8    13 ar  
    17     8    36 1   
    18     9    10 1   
    19     9    11 ar  
    20    11    12 1   
    21    11    13 ar  
    22    13    37 1   
    23    14    15 1   
    24    14    38 1   
    25    15    16 ar  
    26    15    23 ar  
    27    16    17 ar  
    28    16    39 1   
    29    17    18 1   
    30    17    21 ar  
    31    18    19 2   
    32    19    20 1   
    33    19    24 1   
    34    20    21 1   
    35    21    22 ar  
    36    22    23 ar  
    37    22    40 1   
    38    23    41 1   
    39    24    25 ar  
    40    24    29 ar  
    41    25    26 ar  
    42    25    42 1   
    43    26    27 ar  
    44    26    43 1   
    45    27    28 ar  
    46    28    29 ar  
    47    28    44 1   
    48    29    45 1   
@<TRIPOS>SUBSTRUCTURE
     1 Q67         1 TEMP              0 ****  ****    0 ROOT
