@<TRIPOS>MOLECULE
Q68
   60    61     1     0     0
SMALL
No Charge or Current Charge


@<TRIPOS>ATOM
      1 C1          22.9180     9.6320    22.0160 c6         1 Q68       0.191500
      2 C2          22.2270     8.3840    21.4130 c6         1 Q68      -0.156400
      3 C3          22.9550     7.8510    20.1490 c6         1 Q68       0.175300
      4 C4          24.4690     7.5780    20.4560 c6         1 Q68       0.182300
      5 C5          25.1630     8.8470    21.0460 c6         1 Q68       0.135300
      6 N7          22.7680    10.7890    21.1140 n7         1 Q68      -0.890400
      7 C6          24.4160     9.3300    22.3260 c6         1 Q68      -0.101700
      8 C8          21.5120    11.5540    21.1650 c3         1 Q68       0.167800
      9 C9          21.5930    12.7380    20.1820 c3         1 Q68      -0.081400
     10 C10         20.3880    13.6970    20.2900 c3         1 Q68      -0.072400
     11 C11         20.4550    14.8600    19.2760 c3         1 Q68      -0.076400
     12 C12         19.3150    15.8850    19.4530 c3         1 Q68      -0.075400
     13 C13         19.4040    17.0610    18.4630 c3         1 Q68      -0.088100
     14 C16         25.1310    10.4970    23.0910 c3         1 Q68       0.093600
     15 O17         22.2850     6.6600    19.7000 oh         1 Q68      -0.694000
     16 O18         25.1940     7.1590    19.2850 oh         1 Q68      -0.642000
     17 O19         26.5450     8.5550    21.3330 oh         1 Q68      -0.738000
     18 N20         25.5360    11.6790    22.3060 na         1 Q68       0.133800
     19 N21         26.7470    11.7280    21.6770 nc         1 Q68      -0.252800
     20 C22         24.8400    12.8480    22.1420 cc         1 Q68      -0.168000
     21 C23         25.6590    13.6000    21.3480 cd         1 Q68       0.166300
     22 N24         26.8150    12.8910    21.0880 nd         1 Q68      -0.343000
     23 C25         25.4150    14.9820    20.7850 c3         1 Q68       0.087700
     24 N26         24.2650    15.6710    21.3910 ns         1 Q68      -0.514900
     25 C27         23.5590    16.6850    20.7880 c          1 Q68       0.599100
     26 C28         22.3890    17.2220    21.6020 c3         1 Q68      -0.183100
     27 O29         23.8480    17.1190    19.6830 o          1 Q68      -0.596100
     28 H1          22.4240     9.8730    22.9710 h1         1 Q68       0.056700
     29 H2          21.1790     8.6120    21.1780 hc         1 Q68       0.055700
     30 H21         22.1980     7.5930    22.1750 hc         1 Q68       0.055700
     31 H3          22.9010     8.6210    19.3640 h1         1 Q68       0.038700
     32 H4          24.5180     6.7850    21.2180 h1         1 Q68       0.049700
     33 H5          25.1080     9.6450    20.2890 h1         1 Q68       0.050700
     34 HN7         22.9400    10.4980    20.1480 hn         1 Q68       0.425000
     35 H6          24.4240     8.4990    23.0450 hc         1 Q68       0.073700
     36 H81         21.3460    11.9370    22.1810 h1         1 Q68       0.026700
     37 H8          20.6560    10.9200    20.8970 h1         1 Q68       0.026700
     38 H91         21.6600    12.3500    19.1580 hc         1 Q68       0.050700
     39 H9          22.5130    13.3040    20.3720 hc         1 Q68       0.050700
     40 H101        20.3480    14.1050    21.3070 hc         1 Q68       0.035200
     41 H10         19.4590    13.1340    20.1330 hc         1 Q68       0.035200
     42 H111        20.4210    14.4530    18.2580 hc         1 Q68       0.040700
     43 H11         21.4180    15.3740    19.3790 hc         1 Q68       0.040700
     44 H121        19.3360    16.2810    20.4760 hc         1 Q68       0.035700
     45 H12         18.3490    15.3810    19.3250 hc         1 Q68       0.035700
     46 H13         18.5760    17.7620    18.6250 hc         1 Q68       0.031700
     47 H131        20.3460    17.6070    18.5930 hc         1 Q68       0.031700
     48 H14         19.3520    16.7020    17.4280 hc         1 Q68       0.031700
     49 H16         24.4740    10.8370    23.9010 h1         1 Q68       0.071200
     50 H161        26.0320    10.0940    23.5700 h1         1 Q68       0.071200
     51 HO17        21.3920     6.9360    19.3930 ho         1 Q68       0.499000
     52 HO18        26.1370     7.2970    19.5300 ho         1 Q68       0.460000
     53 HO19        27.0110     9.4250    21.3860 ho         1 Q68       0.542000
     54 H22         23.8570    13.0240    22.5540 h4         1 Q68       0.175000
     55 H251        25.2510    14.8890    19.7030 h1         1 Q68       0.073700
     56 H25         26.3140    15.5940    20.9380 h1         1 Q68       0.073700
     57 HN26        23.9630    15.3940    22.3180 hn         1 Q68       0.313500
     58 H28         21.8290    18.0010    21.0720 hc         1 Q68       0.060367
     59 H281        21.7440    16.3870    21.8970 hc         1 Q68       0.060367
     60 H282        22.7630    17.5810    22.5670 hc         1 Q68       0.060367
@<TRIPOS>BOND
     1     1     2 1   
     2     1     6 1   
     3     1     7 1   
     4     1    28 1   
     5     2     3 1   
     6     2    29 1   
     7     2    30 1   
     8     3     4 1   
     9     3    15 1   
    10     3    31 1   
    11     4     5 1   
    12     4    16 1   
    13     4    32 1   
    14     5     7 1   
    15     5    17 1   
    16     5    33 1   
    17     6     8 1   
    18     6    34 1   
    19     7    14 1   
    20     7    35 1   
    21     8     9 1   
    22     8    36 1   
    23     8    37 1   
    24     9    10 1   
    25     9    38 1   
    26     9    39 1   
    27    10    11 1   
    28    10    40 1   
    29    10    41 1   
    30    11    12 1   
    31    11    42 1   
    32    11    43 1   
    33    12    13 1   
    34    12    44 1   
    35    12    45 1   
    36    13    46 1   
    37    13    47 1   
    38    13    48 1   
    39    14    18 1   
    40    14    49 1   
    41    14    50 1   
    42    15    51 1   
    43    16    52 1   
    44    17    53 1   
    45    18    19 1   
    46    18    20 1   
    47    19    22 2   
    48    20    21 2   
    49    20    54 1   
    50    21    22 1   
    51    21    23 1   
    52    23    24 1   
    53    23    55 1   
    54    23    56 1   
    55    24    25 1   
    56    24    57 1   
    57    25    26 1   
    58    25    27 2   
    59    26    58 1   
    60    26    59 1   
    61    26    60 1   
@<TRIPOS>SUBSTRUCTURE
     1 Q68         1 TEMP              0 ****  ****    0 ROOT
