@<TRIPOS>MOLECULE
Q68
   60    61     1     0     0
SMALL
bcc


@<TRIPOS>ATOM
      1 C1          22.7990     9.8470    21.9930 c6         1 Q68       0.191500
      2 C2          22.1660     8.6690    21.2400 c6         1 Q68      -0.156400
      3 C3          22.9410     8.2870    19.9840 c6         1 Q68       0.152100
      4 C4          24.3630     7.9080    20.3630 c6         1 Q68       0.159100
      5 C5          25.0440     9.0650    21.0930 c6         1 Q68       0.112100
      6 N7          22.7060    11.1440    21.3450 n7         1 Q68      -0.835200
      7 C6          24.2520     9.4950    22.3320 c6         1 Q68      -0.101700
      8 C8          21.3550    11.5980    21.0720 c3         1 Q68       0.167800
      9 C9          21.3480    13.0360    20.5790 c3         1 Q68      -0.081400
     10 C10         19.9560    13.5190    20.1940 c3         1 Q68      -0.072400
     11 C11         19.9440    14.9560    19.6890 c3         1 Q68      -0.076400
     12 C12         18.5620    15.4350    19.2650 c3         1 Q68      -0.075400
     13 C13         18.5660    16.8690    18.7540 c3         1 Q68      -0.088100
     14 C16         24.9600    10.5690    23.1670 c3         1 Q68       0.064300
     15 O17         22.3570     7.1890    19.3200 oh         1 Q68      -0.571800
     16 O18         25.0770     7.5720    19.1990 oh         1 Q68      -0.579800
     17 O19         26.3420     8.6230    21.4300 oh         1 Q68      -0.615800
     18 N20         25.6250    11.6260    22.4190 na         1 Q68       0.112400
     19 N21         26.8110    11.4030    21.8810 nc         1 Q68      -0.252800
     20 C22         25.2360    12.8910    22.1920 cc         1 Q68      -0.200600
     21 C23         26.2670    13.4380    21.4710 cd         1 Q68       0.231600
     22 N24         27.2050    12.4850    21.3020 nd         1 Q68      -0.343000
     23 C25         26.4350    14.8250    20.9320 c3         1 Q68       0.087700
     24 N26         25.3530    15.7010    21.2970 ns         1 Q68      -0.581900
     25 C27         24.2230    15.8130    20.5700 c          1 Q68       0.666100
     26 C28         23.1750    16.7270    21.1530 c3         1 Q68      -0.183100
     27 O29         24.0500    15.2020    19.5260 o          1 Q68      -0.596100
     28 H1          22.2630     9.9440    22.9440 h1         1 Q68       0.056700
     29 H2          21.1310     8.9010    20.9770 hc         1 Q68       0.055700
     30 H21         22.1270     7.8040    21.9100 hc         1 Q68       0.055700
     31 H3          22.9880     9.1580    19.3110 h1         1 Q68       0.038700
     32 H4          24.3150     7.0500    21.0550 h1         1 Q68       0.049700
     33 H5          25.1080     9.9020    20.3810 h1         1 Q68       0.050700
     34 HN7         23.2420    11.1680    20.4860 hn         1 Q68       0.369800
     35 H6          24.2010     8.6190    22.9910 hc         1 Q68       0.073700
     36 H81         20.7770    11.5260    21.9980 h1         1 Q68       0.026700
     37 H8          20.8300    10.9700    20.3360 h1         1 Q68       0.026700
     38 H91         22.0120    13.1260    19.7140 hc         1 Q68       0.050700
     39 H9          21.7660    13.6850    21.3550 hc         1 Q68       0.050700
     40 H101        19.2860    13.4310    21.0560 hc         1 Q68       0.035200
     41 H10         19.5440    12.8600    19.4220 hc         1 Q68       0.035200
     42 H111        20.6370    15.0500    18.8460 hc         1 Q68       0.040700
     43 H11         20.3300    15.6180    20.4710 hc         1 Q68       0.040700
     44 H121        17.8750    15.3470    20.1130 hc         1 Q68       0.035700
     45 H12         18.1710    14.7700    18.4890 hc         1 Q68       0.035700
     46 H13         17.5670    17.1930    18.4580 hc         1 Q68       0.031700
     47 H131        18.9250    17.5590    19.5190 hc         1 Q68       0.031700
     48 H14         19.2180    16.9740    17.8860 hc         1 Q68       0.031700
     49 H16         24.2480    11.0480    23.8370 h1         1 Q68       0.071200
     50 H161        25.7250    10.1100    23.7920 h1         1 Q68       0.071200
     51 HO17        21.4620     7.4390    19.0660 ho         1 Q68       0.400000
     52 HO18        26.0010     7.4680    19.4540 ho         1 Q68       0.421000
     53 HO19        26.8940     9.4120    21.5420 ho         1 Q68       0.443000
     54 H22         24.2990    13.2850    22.5430 h4         1 Q68       0.193000
     55 H251        26.5250    14.7940    19.8460 h1         1 Q68       0.073700
     56 H25         27.3650    15.2540    21.3080 h1         1 Q68       0.073700
     57 HN26        25.4310    16.2100    22.1620 hn         1 Q68       0.313500
     58 H28         22.6660    17.2640    20.3560 hc         1 Q68       0.060367
     59 H281        22.4270    16.1240    21.6710 hc         1 Q68       0.060367
     60 H282        23.5790    17.4450    21.8650 hc         1 Q68       0.060367
@<TRIPOS>BOND
     1     1     2 1   
     2     1     6 1   
     3     1     7 1   
     4     1    28 1   
     5     2     3 1   
     6     2    29 1   
     7     2    30 1   
     8     3     4 1   
     9     3    15 1   
    10     3    31 1   
    11     4     5 1   
    12     4    16 1   
    13     4    32 1   
    14     5     7 1   
    15     5    17 1   
    16     5    33 1   
    17     6     8 1   
    18     6    34 1   
    19     7    14 1   
    20     7    35 1   
    21     8     9 1   
    22     8    36 1   
    23     8    37 1   
    24     9    10 1   
    25     9    38 1   
    26     9    39 1   
    27    10    11 1   
    28    10    40 1   
    29    10    41 1   
    30    11    12 1   
    31    11    42 1   
    32    11    43 1   
    33    12    13 1   
    34    12    44 1   
    35    12    45 1   
    36    13    46 1   
    37    13    47 1   
    38    13    48 1   
    39    14    18 1   
    40    14    49 1   
    41    14    50 1   
    42    15    51 1   
    43    16    52 1   
    44    17    53 1   
    45    18    19 1   
    46    18    20 1   
    47    19    22 2   
    48    20    21 2   
    49    20    54 1   
    50    21    22 1   
    51    21    23 1   
    52    23    24 1   
    53    23    55 1   
    54    23    56 1   
    55    24    25 1   
    56    24    57 1   
    57    25    26 1   
    58    25    27 2   
    59    26    58 1   
    60    26    59 1   
    61    26    60 1   
@<TRIPOS>SUBSTRUCTURE
     1 Q68         1 TEMP              0 ****  ****    0 ROOT
