@<TRIPOS>MOLECULE
Q69
   26    26     1     0     0
SMALL
abcg2


@<TRIPOS>ATOM
      1 C4          11.3180    -1.3480    22.4320 ca         1 Q69      -0.087300
      2 C5          11.5730    -0.2280    23.2210 ca         1 Q69      -0.095000
      3 C6          12.8360     0.3510    23.2340 ca         1 Q69      -0.100000
      4 C7          13.8640    -0.1770    22.4590 ca         1 Q69      -0.098000
      5 C8          13.5940    -1.2910    21.6780 ca         1 Q69       0.125000
      6 CL1         14.8710    -1.9690    20.6830 cl         1 Q69      -0.217000
      7 C9          12.3400    -1.8850    21.6550 ca         1 Q69      -0.089000
      8 C1           9.9440    -1.9950    22.4660 c3         1 Q69       0.164000
      9 C            9.8810    -3.0140    23.5990 c3         1 Q69       0.146600
     10 O            8.5410    -3.4860    23.7150 oh         1 Q69      -0.664000
     11 N            9.5870    -2.6420    21.2150 ns         1 Q69      -0.503900
     12 C2           9.2480    -1.9550    20.1060 c          1 Q69       0.596100
     13 O1           9.2190    -0.7230    20.0810 o          1 Q69      -0.605100
     14 C3           8.9180    -2.7830    18.8880 c3         1 Q69      -0.174100
     15 H1          10.7770     0.1960    23.8200 ha         1 Q69       0.120000
     16 H2          13.0260     1.2240    23.8460 ha         1 Q69       0.120000
     17 H3          14.8480     0.2710    22.4570 ha         1 Q69       0.131000
     18 H4          12.1590    -2.7470    21.0290 ha         1 Q69       0.127000
     19 H5           9.2070    -1.2150    22.6690 h1         1 Q69       0.089700
     20 H6          10.5690    -3.8400    23.3840 h1         1 Q69       0.033700
     21 H7          10.2080    -2.5270    24.5210 h1         1 Q69       0.033700
     22 H8           8.5300    -4.2180    24.3430 ho         1 Q69       0.447000
     23 H9           9.5730    -3.6480    21.1850 hn         1 Q69       0.316500
     24 H10          7.9300    -2.4990    18.5260 hc         1 Q69       0.060700
     25 H11          9.6400    -2.5480    18.1040 hc         1 Q69       0.060700
     26 H12          8.9390    -3.8540    19.0810 hc         1 Q69       0.060700
@<TRIPOS>BOND
     1     1     2 ar  
     2     1     7 ar  
     3     1     8 1   
     4     2     3 ar  
     5     2    15 1   
     6     3     4 ar  
     7     3    16 1   
     8     4     5 ar  
     9     4    17 1   
    10     5     6 1   
    11     5     7 ar  
    12     7    18 1   
    13     8     9 1   
    14     8    11 1   
    15     8    19 1   
    16     9    10 1   
    17     9    20 1   
    18     9    21 1   
    19    10    22 1   
    20    11    12 1   
    21    11    23 1   
    22    12    13 2   
    23    12    14 1   
    24    14    24 1   
    25    14    25 1   
    26    14    26 1   
@<TRIPOS>SUBSTRUCTURE
     1 Q69         1 TEMP              0 ****  ****    0 ROOT
