@<TRIPOS>MOLECULE
Q69
   26    26     1     0     0
SMALL
No Charge or Current Charge


@<TRIPOS>ATOM
      1 C4          11.3730    -1.4080    22.4680 ca         1 Q69      -0.087300
      2 C5          11.4830    -0.0520    22.8420 ca         1 Q69      -0.095000
      3 C6          12.7300     0.5980    22.8050 ca         1 Q69      -0.100000
      4 C7          13.8760    -0.1020    22.3910 ca         1 Q69      -0.098000
      5 C8          13.7730    -1.4500    22.0130 ca         1 Q69       0.125000
      6 Cl1         15.2060    -2.3260    21.4900 cl         1 Q69      -0.217000
      7 C9          12.5290    -2.1010    22.0490 ca         1 Q69      -0.089000
      8 C1          10.0140    -2.1070    22.5070 c3         1 Q69       0.164000
      9 C            9.9960    -3.2750    23.5330 c3         1 Q69       0.146600
     10 O            8.7050    -3.9090    23.5790 oh         1 Q69      -0.664000
     11 N            9.6250    -2.5530    21.1640 ns         1 Q69      -0.503900
     12 C2           9.0200    -1.7570    20.2230 c          1 Q69       0.596100
     13 O1           8.7740    -0.5750    20.4160 o          1 Q69      -0.605100
     14 C3           8.6790    -2.4610    18.9160 c3         1 Q69      -0.174100
     15 H1          10.6030     0.5010    23.1610 ha         1 Q69       0.120000
     16 H2          12.8060     1.6430    23.0960 ha         1 Q69       0.120000
     17 H3          14.8400     0.3990    22.3610 ha         1 Q69       0.131000
     18 H4          12.4650    -3.1440    21.7480 ha         1 Q69       0.127000
     19 H5           9.2630    -1.3810    22.8490 h1         1 Q69       0.089700
     20 H6          10.7650    -4.0100    23.2570 h1         1 Q69       0.033700
     21 H7          10.2600    -2.8780    24.5220 h1         1 Q69       0.033700
     22 H8           8.7590    -4.6270    24.2490 ho         1 Q69       0.447000
     23 H9           9.7530    -3.5280    20.9250 hn         1 Q69       0.316500
     24 H10          8.1990    -1.7950    18.1900 hc         1 Q69       0.060700
     25 H11          9.5890    -2.9160    18.5080 hc         1 Q69       0.060700
     26 H12          8.0580    -3.3370    19.1340 hc         1 Q69       0.060700
@<TRIPOS>BOND
     1     1     2 ar  
     2     1     7 ar  
     3     1     8 1   
     4     2     3 ar  
     5     2    15 1   
     6     3     4 ar  
     7     3    16 1   
     8     4     5 ar  
     9     4    17 1   
    10     5     6 1   
    11     5     7 ar  
    12     7    18 1   
    13     8     9 1   
    14     8    11 1   
    15     8    19 1   
    16     9    10 1   
    17     9    20 1   
    18     9    21 1   
    19    10    22 1   
    20    11    12 1   
    21    11    23 1   
    22    12    13 2   
    23    12    14 1   
    24    14    24 1   
    25    14    25 1   
    26    14    26 1   
@<TRIPOS>SUBSTRUCTURE
     1 Q69         1 TEMP              0 ****  ****    0 ROOT
