@<TRIPOS>MOLECULE
Q6A
   44    45     1     0     0
SMALL
No Charge or Current Charge


@<TRIPOS>ATOM
      1 C15         -0.5170     9.4870    83.5180 ca         1 Q6A      -0.038000
      2 C21          1.6980     8.7910    82.7940 ca         1 Q6A      -0.038000
      3 C5          -0.5000     5.8850    85.1010 ca         1 Q6A      -0.180000
      4 C23         -2.3900     4.7890    84.0450 ca         1 Q6A      -0.180000
      5 C16         -0.0130     9.7460    84.8030 ca         1 Q6A      -0.183000
      6 C20          2.2020     9.0510    84.0810 ca         1 Q6A      -0.183000
      7 C4          -0.6830     5.1060    86.2560 ca         1 Q6A       0.022500
      8 C24         -2.5800     4.0050    85.1960 ca         1 Q6A       0.022500
      9 C14          0.3360     8.9960    82.5120 ca         1 Q6A      -0.152800
     10 C6          -1.3490     5.7410    83.9890 ca         1 Q6A       0.038000
     11 C17          1.3420     9.5290    85.0940 ca         1 Q6A       0.172100
     12 C3          -1.7260     4.1620    86.3060 ca         1 Q6A      -0.310500
     13 C13         -0.1940     8.7020    81.1530 ce         1 Q6A      -0.018200
     14 C9          -1.1420     7.7880    80.7350 cf         1 Q6A      -0.309400
     15 C10         -1.5190     7.7980    79.2740 c          1 Q6A       0.594300
     16 C8          -1.7850     6.8120    81.6880 c          1 Q6A       0.625300
     17 C11         -2.3730     6.6840    78.6620 c3         1 Q6A      -0.197100
     18 C19          3.1440     9.5970    86.7790 c3         1 Q6A       0.145900
     19 N25         -0.9490     1.9170    87.4880 n8         1 Q6A      -1.006100
     20 N7          -1.0910     6.5690    82.8640 ns         1 Q6A      -0.142000
     21 O12         -1.1130     8.6830    78.5300 o          1 Q6A      -0.527100
     22 O22         -2.8520     6.2690    81.4440 o          1 Q6A      -0.565100
     23 O1          -1.4090     3.8440    88.9500 o          1 Q6A      -0.547000
     24 O26         -3.2860     2.5540    87.7600 o          1 Q6A      -0.547000
     25 O18          1.7780     9.7960    86.3750 os         1 Q6A      -0.332100
     26 S2          -1.9610     3.1680    87.7760 sy         1 Q6A       1.134600
     27 H1          -1.5710     9.6600    83.3060 ha         1 Q6A       0.122000
     28 H2           2.3660     8.4190    82.0190 ha         1 Q6A       0.122000
     29 H3           0.3100     6.6100    85.0760 ha         1 Q6A       0.135000
     30 H4          -3.0600     4.6340    83.2070 ha         1 Q6A       0.135000
     31 H5          -0.6770    10.1170    85.5800 ha         1 Q6A       0.130000
     32 H6           3.2570     8.8760    84.2710 ha         1 Q6A       0.130000
     33 H7          -0.0120     5.2380    87.1040 ha         1 Q6A       0.138000
     34 H8          -3.3910     3.2780    85.2170 ha         1 Q6A       0.138000
     35 H9           0.2660     9.3540    80.4060 ha         1 Q6A       0.201000
     36 H10         -2.3650     6.7130    77.5670 hc         1 Q6A       0.068367
     37 H11         -2.0510     5.7090    79.0440 hc         1 Q6A       0.068367
     38 H12         -3.4000     6.7840    79.0270 hc         1 Q6A       0.068367
     39 H13          3.2720     9.8680    87.8340 h1         1 Q6A       0.045367
     40 H14          3.4370     8.5460    86.6590 h1         1 Q6A       0.045367
     41 H15          3.8220    10.2230    86.1830 h1         1 Q6A       0.045367
     42 H16         -1.5800     1.1290    87.6140 hn         1 Q6A       0.472500
     43 H17         -0.8250     1.9720    86.4810 hn         1 Q6A       0.472500
     44 H18         -0.2330     7.0960    82.9430 hn         1 Q6A       0.162000
@<TRIPOS>BOND
     1     1     5 ar  
     2     1     9 ar  
     3     1    27 1   
     4     2     6 ar  
     5     2     9 ar  
     6     2    28 1   
     7     3     7 ar  
     8     3    10 ar  
     9     3    29 1   
    10     4     8 ar  
    11     4    10 ar  
    12     4    30 1   
    13     5    11 ar  
    14     5    31 1   
    15     6    11 ar  
    16     6    32 1   
    17     7    12 ar  
    18     7    33 1   
    19     8    12 ar  
    20     8    34 1   
    21     9    13 1   
    22    10    20 1   
    23    11    25 1   
    24    12    26 1   
    25    13    14 2   
    26    13    35 1   
    27    14    15 1   
    28    14    16 1   
    29    15    17 1   
    30    15    21 2   
    31    16    20 1   
    32    16    22 2   
    33    17    36 1   
    34    17    37 1   
    35    17    38 1   
    36    18    25 1   
    37    18    39 1   
    38    18    40 1   
    39    18    41 1   
    40    19    26 1   
    41    19    42 1   
    42    19    43 1   
    43    20    44 1   
    44    23    26 2   
    45    24    26 2   
@<TRIPOS>SUBSTRUCTURE
     1 Q6A         1 TEMP              0 ****  ****    0 ROOT
