@<TRIPOS>MOLECULE
Q6A
   44    45     1     0     0
SMALL
bcc


@<TRIPOS>ATOM
      1 C15         -0.3430     9.1340    83.7840 ca         1 Q6A      -0.056000
      2 C21          1.7580     9.6740    82.7690 ca         1 Q6A      -0.056000
      3 C5          -0.3030     4.5400    84.4330 ca         1 Q6A      -0.198000
      4 C23         -2.5840     5.3270    84.4070 ca         1 Q6A      -0.198000
      5 C16          0.1220     9.6010    84.9930 ca         1 Q6A      -0.201000
      6 C20          2.2460    10.1330    83.9810 ca         1 Q6A      -0.201000
      7 C4          -0.5800     3.7350    85.5160 ca         1 Q6A       0.004500
      8 C24         -2.8580     4.5190    85.4990 ca         1 Q6A       0.004500
      9 C14          0.4730     9.1410    82.6420 ca         1 Q6A      -0.152800
     10 C6          -1.2990     5.3440    83.8640 ca         1 Q6A       0.130600
     11 C17          1.4270    10.0940    85.1100 ca         1 Q6A       0.172100
     12 C3          -1.8650     3.7260    86.0480 ca         1 Q6A      -0.310500
     13 C13          0.0620     8.6560    81.3360 ce         1 Q6A       0.031800
     14 C9          -0.8680     7.7370    81.0160 cf         1 Q6A      -0.309400
     15 C10         -1.1290     7.4400    79.5790 c          1 Q6A       0.594300
     16 C8          -1.6630     6.9960    82.0430 c          1 Q6A       0.692300
     17 C11         -2.0370     6.2850    79.2620 c3         1 Q6A      -0.197100
     18 C19          3.0970    11.0360    86.5050 c3         1 Q6A       0.122700
     19 N25         -2.1610     1.2040    86.7810 n8         1 Q6A      -0.895700
     20 N7          -0.9190     6.1270    82.7790 ns         1 Q6A      -0.468100
     21 O12         -0.6070     8.0980    78.7020 o          1 Q6A      -0.527100
     22 O22         -2.8600     7.1640    82.1770 o          1 Q6A      -0.565100
     23 O1          -1.0910     2.7680    88.3800 o          1 Q6A      -0.617800
     24 O26         -3.5330     3.0730    87.9430 o          1 Q6A      -0.617800
     25 O18          1.7920    10.5160    86.3250 os         1 Q6A      -0.308900
     26 S2          -2.2100     2.7140    87.4500 sy         1 Q6A       1.276200
     27 H1          -1.3720     8.8080    83.7330 ha         1 Q6A       0.140000
     28 H2           2.4020     9.7190    81.8990 ha         1 Q6A       0.140000
     29 H3           0.6990     4.5490    84.0220 ha         1 Q6A       0.153000
     30 H4          -3.3730     5.9330    83.9950 ha         1 Q6A       0.153000
     31 H5          -0.5260     9.6000    85.8590 ha         1 Q6A       0.148000
     32 H6           3.2540    10.5220    84.0260 ha         1 Q6A       0.148000
     33 H7           0.2050     3.1210    85.9360 ha         1 Q6A       0.156000
     34 H8          -3.8580     4.5200    85.9100 ha         1 Q6A       0.156000
     35 H9           0.6010     9.0940    80.5000 ha         1 Q6A       0.151000
     36 H10         -2.0220     6.0730    78.1950 hc         1 Q6A       0.068367
     37 H11         -1.7350     5.3890    79.8080 hc         1 Q6A       0.068367
     38 H12         -3.0610     6.5120    79.5610 hc         1 Q6A       0.068367
     39 H13          3.1730    11.3150    87.5530 h1         1 Q6A       0.045367
     40 H14          3.8640    10.2920    86.2800 h1         1 Q6A       0.045367
     41 H15          3.2690    11.9230    85.8910 h1         1 Q6A       0.045367
     42 H16         -2.0340     0.4870    87.4890 hn         1 Q6A       0.417300
     43 H17         -2.9770     0.9980    86.2130 hn         1 Q6A       0.417300
     44 H18          0.0540     6.0580    82.5180 hn         1 Q6A       0.328500
@<TRIPOS>BOND
     1     1     5 ar  
     2     1     9 ar  
     3     1    27 1   
     4     2     6 ar  
     5     2     9 ar  
     6     2    28 1   
     7     3     7 ar  
     8     3    10 ar  
     9     3    29 1   
    10     4     8 ar  
    11     4    10 ar  
    12     4    30 1   
    13     5    11 ar  
    14     5    31 1   
    15     6    11 ar  
    16     6    32 1   
    17     7    12 ar  
    18     7    33 1   
    19     8    12 ar  
    20     8    34 1   
    21     9    13 1   
    22    10    20 1   
    23    11    25 1   
    24    12    26 1   
    25    13    14 2   
    26    13    35 1   
    27    14    15 1   
    28    14    16 1   
    29    15    17 1   
    30    15    21 2   
    31    16    20 1   
    32    16    22 2   
    33    17    36 1   
    34    17    37 1   
    35    17    38 1   
    36    18    25 1   
    37    18    39 1   
    38    18    40 1   
    39    18    41 1   
    40    19    26 1   
    41    19    42 1   
    42    19    43 1   
    43    20    44 1   
    44    23    26 2   
    45    24    26 2   
@<TRIPOS>SUBSTRUCTURE
     1 Q6A         1 TEMP              0 ****  ****    0 ROOT
