@<TRIPOS>MOLECULE
Q6C
   27    27     1     0     0
SMALL
abcg2


@<TRIPOS>ATOM
      1 C4         -34.6640   -46.2730    25.3970 c3         1 Q6C       0.112000
      2 C5         -35.4660   -46.1160    26.6760 ca         1 Q6C       0.343300
      3 C6         -35.3930   -47.1210    27.6380 ca         1 Q6C      -0.156000
      4 C7         -36.0960   -46.9410    28.8170 ca         1 Q6C       0.155000
      5 C8         -36.8490   -45.7940    29.0110 ca         1 Q6C      -0.151000
      6 N          -36.1820   -45.0050    26.8420 nb         1 Q6C      -0.613000
      7 C          -31.6010   -48.7590    22.3440 c3         1 Q6C      -0.098100
      8 C1         -31.6050   -47.2770    22.6250 c3         1 Q6C       0.166600
      9 C3         -33.2180   -45.7960    25.6220 c3         1 Q6C       0.120300
     10 C9         -36.8570   -44.8590    27.9850 ca         1 Q6C       0.346900
     11 F          -33.2120   -44.4950    26.1070 f          1 Q6C      -0.219000
     12 O2         -35.2730   -45.5600    24.3340 oh         1 Q6C      -0.615000
     13 CL         -36.0410   -48.1650    30.0540 cl         1 Q6C      -0.191000
     14 H1         -34.6010   -47.3370    25.1610 h1         1 Q6C       0.055700
     15 H8         -34.8080   -48.0140    27.4670 ha         1 Q6C       0.136000
     16 H9         -37.4110   -45.6300    29.9190 ha         1 Q6C       0.141000
     17 H3         -31.0590   -48.9450    21.4150 hc         1 Q6C       0.049367
     18 H4         -31.1050   -49.3060    23.1460 hc         1 Q6C       0.049367
     19 H2         -32.6170   -49.1390    22.2320 hc         1 Q6C       0.049367
     20 H6         -30.5990   -46.8800    22.7560 h1         1 Q6C       0.054700
     21 H5         -32.1060   -46.7100    21.8410 h1         1 Q6C       0.054700
     22 H          -32.7310   -46.4340    26.3630 h1         1 Q6C       0.079700
     23 H10        -37.4350   -43.9490    28.0930 h4         1 Q6C       0.031100
     24 H7         -35.1720   -46.0740    23.5230 ho         1 Q6C       0.446000
     25 C2         -32.4100   -45.8260    24.3290 c          1 Q6C       0.561100
     26 O1         -31.9150   -44.8560    23.8110 o          1 Q6C      -0.439000
     27 O          -32.3380   -47.0690    23.8680 os         1 Q6C      -0.471100
@<TRIPOS>BOND
     1     1     2 1   
     2     1     9 1   
     3     1    12 1   
     4     1    14 1   
     5     2     3 ar  
     6     2     6 ar  
     7     3     4 ar  
     8     3    15 1   
     9     4     5 ar  
    10     4    13 1   
    11     5    10 ar  
    12     5    16 1   
    13     6    10 ar  
    14     7     8 1   
    15     7    17 1   
    16     7    18 1   
    17     7    19 1   
    18     8    20 1   
    19     8    21 1   
    20     8    27 1   
    21     9    11 1   
    22     9    22 1   
    23     9    25 1   
    24    10    23 1   
    25    12    24 1   
    26    25    26 2   
    27    25    27 1   
@<TRIPOS>SUBSTRUCTURE
     1 Q6C         1 TEMP              0 ****  ****    0 ROOT
