@<TRIPOS>MOLECULE
Q6C
   27    27     1     0     0
SMALL
No Charge or Current Charge


@<TRIPOS>ATOM
      1 C4         -34.7150   -46.0560    25.2510 c3         1 Q6C       0.112000
      2 C5         -35.5040   -46.0820    26.5730 ca         1 Q6C       0.343300
      3 C6         -35.2600   -47.0720    27.5410 ca         1 Q6C      -0.156000
      4 C7         -36.0030   -47.0560    28.7280 ca         1 Q6C       0.155000
      5 C8         -36.9660   -46.0570    28.9110 ca         1 Q6C      -0.151000
      6 N          -36.4420   -45.1130    26.7460 nb         1 Q6C      -0.613000
      7 C          -31.4040   -48.9380    22.5350 c3         1 Q6C      -0.098100
      8 C1         -31.4280   -47.4090    22.6880 c3         1 Q6C       0.166600
      9 C3         -33.2350   -45.6410    25.4760 c3         1 Q6C       0.120300
     10 C9         -37.1530   -45.1080    27.8970 ca         1 Q6C       0.346900
     11 F          -33.1660   -44.3830    25.9970 f          1 Q6C      -0.219000
     12 O2         -35.3450   -45.1840    24.2850 oh         1 Q6C      -0.615000
     13 Cl         -35.7300   -48.2730    29.9670 cl         1 Q6C      -0.191000
     14 H1         -34.7140   -47.0820    24.8590 h1         1 Q6C       0.055700
     15 H8         -34.5100   -47.8390    27.3730 ha         1 Q6C       0.136000
     16 H9         -37.5600   -46.0150    29.8180 ha         1 Q6C       0.141000
     17 H3         -30.8110   -49.2220    21.6580 hc         1 Q6C       0.049367
     18 H4         -30.9590   -49.4080    23.4190 hc         1 Q6C       0.049367
     19 H2         -32.4200   -49.3290    22.4030 hc         1 Q6C       0.049367
     20 H6         -30.4010   -47.0370    22.8040 h1         1 Q6C       0.054700
     21 H5         -31.8640   -46.9570    21.7870 h1         1 Q6C       0.054700
     22 H          -32.7900   -46.3270    26.2080 h1         1 Q6C       0.079700
     23 H10        -37.8950   -44.3180    28.0060 h4         1 Q6C       0.031100
     24 H7         -36.0090   -44.6750    24.8090 ho         1 Q6C       0.446000
     25 C2         -32.3970   -45.7870    24.1880 c          1 Q6C       0.561100
     26 O1         -31.8630   -44.8540    23.5980 o          1 Q6C      -0.439000
     27 O          -32.2200   -47.1070    23.8500 os         1 Q6C      -0.471100
@<TRIPOS>BOND
     1     1     2 1   
     2     1     9 1   
     3     1    12 1   
     4     1    14 1   
     5     2     3 ar  
     6     2     6 ar  
     7     3     4 ar  
     8     3    15 1   
     9     4     5 ar  
    10     4    13 1   
    11     5    10 ar  
    12     5    16 1   
    13     6    10 ar  
    14     7     8 1   
    15     7    17 1   
    16     7    18 1   
    17     7    19 1   
    18     8    20 1   
    19     8    21 1   
    20     8    27 1   
    21     9    11 1   
    22     9    22 1   
    23     9    25 1   
    24    10    23 1   
    25    12    24 1   
    26    25    26 2   
    27    25    27 1   
@<TRIPOS>SUBSTRUCTURE
     1 Q6C         1 TEMP              0 ****  ****    0 ROOT
