@<TRIPOS>MOLECULE
Q6D
   37    38     1     0     0
SMALL
bcc


@<TRIPOS>ATOM
      1 C16          1.7850    10.2800    84.9710 cc         1 Q6D      -0.160000
      2 C5          -0.3050     4.0720    84.3670 ca         1 Q6D      -0.198000
      3 C20         -2.4660     5.1440    84.3110 ca         1 Q6D      -0.198000
      4 C4          -0.7450     3.2090    85.3460 ca         1 Q6D       0.004000
      5 C21         -2.9050     4.2740    85.2980 ca         1 Q6D       0.004000
      6 C15          1.7750    10.0140    83.5860 cc         1 Q6D      -0.107000
      7 C17          0.8760     9.5200    85.6480 cd         1 Q6D      -0.101100
      8 C6          -1.1560     5.0520    83.8410 ca         1 Q6D       0.134600
      9 C3          -2.0510     3.3130    85.8110 ca         1 Q6D      -0.311500
     10 C14          0.8610     9.0510    83.2220 cd         1 Q6D      -0.104900
     11 C13          0.6470     8.6230    81.8670 cf         1 Q6D       0.040800
     12 C9          -0.2040     7.7030    81.3770 ce         1 Q6D      -0.300400
     13 C10         -0.3040     7.3880    79.9390 c          1 Q6D       0.584300
     14 C8          -1.1740     6.9530    82.2410 c          1 Q6D       0.695300
     15 C11          0.5550     8.1380    78.9610 c3         1 Q6D      -0.193100
     16 N22         -2.5840     0.7770    86.3360 n8         1 Q6D      -0.897700
     17 N7          -0.6100     5.8930    82.8770 ns         1 Q6D      -0.466100
     18 O12         -1.0760     6.5190    79.5810 o          1 Q6D      -0.507100
     19 O19         -2.3330     7.2940    82.3490 o          1 Q6D      -0.540100
     20 O1          -1.5530     2.1540    88.1220 o          1 Q6D      -0.619300
     21 O23         -3.9220     2.6610    87.5110 o          1 Q6D      -0.619300
     22 S18          0.0080     8.4770    84.6160 ss         1 Q6D      -0.010800
     23 S2          -2.5890     2.2390    87.1030 sy         1 Q6D       1.278200
     24 H1           2.4340    11.0000    85.4480 ha         1 Q6D       0.160000
     25 H2           0.7130     3.9910    84.0080 ha         1 Q6D       0.153000
     26 H3          -3.1490     5.8810    83.9240 ha         1 Q6D       0.153000
     27 H4          -0.0670     2.4630    85.7400 ha         1 Q6D       0.155000
     28 H5          -3.9210     4.3620    85.6560 ha         1 Q6D       0.155000
     29 H6           2.4150    10.5090    82.8690 ha         1 Q6D       0.153000
     30 H7           0.6740     9.5170    86.7080 h4         1 Q6D       0.176000
     31 H8           1.2850     9.1450    81.1620 ha         1 Q6D       0.135000
     32 H9           0.3440     7.8010    77.9490 hc         1 Q6D       0.064033
     33 H10          0.3710     9.2110    79.0180 hc         1 Q6D       0.064033
     34 H11          1.6150     7.9790    79.1670 hc         1 Q6D       0.064033
     35 H12         -2.5470     0.0080    86.9980 hn         1 Q6D       0.418300
     36 H13         -3.3670     0.6610    85.7010 hn         1 Q6D       0.418300
     37 H14          0.3610     5.7190    82.6560 hn         1 Q6D       0.325500
@<TRIPOS>BOND
     1     1     6 1   
     2     1     7 2   
     3     1    24 1   
     4     2     4 ar  
     5     2     8 ar  
     6     2    25 1   
     7     3     5 ar  
     8     3     8 ar  
     9     3    26 1   
    10     4     9 ar  
    11     4    27 1   
    12     5     9 ar  
    13     5    28 1   
    14     6    10 2   
    15     6    29 1   
    16     7    22 1   
    17     7    30 1   
    18     8    17 1   
    19     9    23 1   
    20    10    11 1   
    21    10    22 1   
    22    11    12 2   
    23    11    31 1   
    24    12    13 1   
    25    12    14 1   
    26    13    15 1   
    27    13    18 2   
    28    14    17 1   
    29    14    19 2   
    30    15    32 1   
    31    15    33 1   
    32    15    34 1   
    33    16    23 1   
    34    16    35 1   
    35    16    36 1   
    36    17    37 1   
    37    20    23 2   
    38    21    23 2   
@<TRIPOS>SUBSTRUCTURE
     1 Q6D         1 TEMP              0 ****  ****    0 ROOT
