@<TRIPOS>MOLECULE
Q6D
   37    38     1     0     0
SMALL
No Charge or Current Charge


@<TRIPOS>ATOM
      1 C16          2.1510     8.3230    85.0560 cc         1 Q6D      -0.142000
      2 C5          -0.4920     5.2390    85.0770 ca         1 Q6D      -0.180000
      3 C20         -2.4370     4.6520    83.7510 ca         1 Q6D      -0.180000
      4 C4          -0.9080     4.3590    86.0910 ca         1 Q6D       0.022000
      5 C21         -2.8600     3.7690    84.7600 ca         1 Q6D       0.022000
      6 C15          2.1090     8.1610    83.6500 cc         1 Q6D      -0.089000
      7 C17          1.0080     8.8640    85.5840 cd         1 Q6D      -0.228000
      8 C6          -1.2480     5.3980    83.9010 ca         1 Q6D       0.042000
      9 C3          -2.0970     3.6230    85.9350 ca         1 Q6D      -0.311500
     10 C14          0.9290     8.5670    83.0850 cd         1 Q6D      -0.249800
     11 C13          0.5930     8.5150    81.6610 cf         1 Q6D      -0.009200
     12 C9          -0.3810     7.7830    81.0100 ce         1 Q6D      -0.300400
     13 C10         -0.5970     7.9540    79.5230 c          1 Q6D       0.584300
     14 C8          -1.2580     6.7830    81.7290 c          1 Q6D       0.628300
     15 C11          0.1390     9.0750    78.7790 c3         1 Q6D      -0.193100
     16 N22         -1.9270     1.0950    86.8000 n8         1 Q6D      -1.008100
     17 N7          -0.7540     6.3110    82.9320 ns         1 Q6D      -0.140000
     18 O12         -1.3340     7.2260    78.8730 o          1 Q6D      -0.507100
     19 O19         -2.3330     6.4050    81.2810 o          1 Q6D      -0.540100
     20 O1          -2.0080     2.8290    88.5000 o          1 Q6D      -0.548500
     21 O23         -4.0630     2.2120    87.1040 o          1 Q6D      -0.548500
     22 S18         -0.1830     9.2140    84.3170 ss         1 Q6D       0.279000
     23 S2          -2.6360     2.5000    87.2230 sy         1 Q6D       1.136600
     24 H1           3.0180     8.0380    85.6460 ha         1 Q6D       0.142000
     25 H2           0.4280     5.8030    85.2120 ha         1 Q6D       0.135000
     26 H3          -3.0490     4.7330    82.8590 ha         1 Q6D       0.135000
     27 H4          -0.3040     4.2540    86.9910 ha         1 Q6D       0.137000
     28 H5          -3.7790     3.2010    84.6230 ha         1 Q6D       0.137000
     29 H6           2.9410     7.7420    83.0910 ha         1 Q6D       0.135000
     30 H7           0.7830     9.0880    86.6190 h4         1 Q6D       0.158000
     31 H8           1.2440     9.1720    81.0820 ha         1 Q6D       0.185000
     32 H9          -0.1790     9.1600    77.7340 hc         1 Q6D       0.064033
     33 H10          0.0130    10.0210    79.3170 hc         1 Q6D       0.064033
     34 H11          1.2180     8.8910    78.8350 hc         1 Q6D       0.064033
     35 H12         -1.4650     0.8560    87.6740 hn         1 Q6D       0.473500
     36 H13         -2.7340     0.4760    86.8100 hn         1 Q6D       0.473500
     37 H14          0.1470     6.7030    83.1720 hn         1 Q6D       0.159000
@<TRIPOS>BOND
     1     1     6 1   
     2     1     7 2   
     3     1    24 1   
     4     2     4 ar  
     5     2     8 ar  
     6     2    25 1   
     7     3     5 ar  
     8     3     8 ar  
     9     3    26 1   
    10     4     9 ar  
    11     4    27 1   
    12     5     9 ar  
    13     5    28 1   
    14     6    10 2   
    15     6    29 1   
    16     7    22 1   
    17     7    30 1   
    18     8    17 1   
    19     9    23 1   
    20    10    11 1   
    21    10    22 1   
    22    11    12 2   
    23    11    31 1   
    24    12    13 1   
    25    12    14 1   
    26    13    15 1   
    27    13    18 2   
    28    14    17 1   
    29    14    19 2   
    30    15    32 1   
    31    15    33 1   
    32    15    34 1   
    33    16    23 1   
    34    16    35 1   
    35    16    36 1   
    36    17    37 1   
    37    20    23 2   
    38    21    23 2   
@<TRIPOS>SUBSTRUCTURE
     1 Q6D         1 TEMP              0 ****  ****    0 ROOT
