@<TRIPOS>MOLECULE
Q6E
   58    61     1     0     0
SMALL
No Charge or Current Charge


@<TRIPOS>ATOM
      1 C1         -48.3140   -43.8880    -6.5210 c3         1 Q6E      -0.180100
      2 C2         -47.1730   -43.9950    -5.5180 c          1 Q6E       0.602100
      3 C7         -46.4390   -43.6610    -0.5340 c6         1 Q6E      -0.071400
      4 C8         -45.5390   -42.4010    -0.5190 c6         1 Q6E      -0.071400
      5 C9         -44.7710   -42.2500    -1.8600 c6         1 Q6E      -0.135700
      6 C10        -45.6930   -42.3210    -3.1090 c6         1 Q6E      -0.085400
      7 C11        -43.8080   -41.0420    -1.8800 c          1 Q6E       0.617100
      8 C14        -41.3450   -40.5290    -2.0210 ca         1 Q6E       0.480900
      9 C15        -41.3470   -39.1700    -2.3710 ca         1 Q6E      -0.187000
     10 C16        -40.1380   -38.4430    -2.3940 ca         1 Q6E       0.102000
     11 C20        -40.1550   -37.0180    -2.7760 cc         1 Q6E      -0.174000
     12 C21        -39.1390   -36.1400    -3.2410 cc         1 Q6E       0.275900
     13 N23        -40.7850   -34.9290    -2.7970 na         1 Q6E       0.133800
     14 C24        -41.2020   -36.1770    -2.5290 cd         1 Q6E      -0.119300
     15 C27        -41.5110   -33.9220    -2.0760 c5         1 Q6E       0.081600
     16 O3         -46.0620   -44.4000    -5.8260 o          1 Q6E      -0.608100
     17 N4         -47.4910   -43.6050    -4.2380 ns         1 Q6E      -0.506900
     18 C5         -46.5740   -43.5990    -3.0940 c6         1 Q6E       0.111700
     19 C6         -47.3770   -43.6700    -1.7680 c6         1 Q6E      -0.089400
     20 O12        -44.2270   -39.8950    -1.8140 o          1 Q6E      -0.586100
     21 N13        -42.4710   -41.3550    -1.9630 ns         1 Q6E      -0.318900
     22 C17        -38.9580   -39.1600    -2.0690 ca         1 Q6E       0.027000
     23 C18        -39.0610   -40.5260    -1.7400 ca         1 Q6E       0.384900
     24 N19        -40.2300   -41.2100    -1.7140 nb         1 Q6E      -0.732000
     25 Cl         -37.3590   -38.4100    -1.9860 cl         1 Q6E      -0.187000
     26 N22        -39.4730   -34.8550    -3.2260 nd         1 Q6E      -0.509800
     27 C25        -42.2830   -36.2660    -1.4960 c5         1 Q6E      -0.018100
     28 C26        -42.3330   -34.7420    -0.9700 c5         1 Q6E      -0.070000
     29 C28        -43.7850   -34.2220    -0.8240 c3         1 Q6E      -0.085600
     30 C29        -41.6400   -34.6250     0.4140 c3         1 Q6E      -0.085600
     31 H1         -49.1730   -44.4560    -6.1460 hc         1 Q6E       0.060033
     32 H2         -48.6950   -42.8600    -6.5180 hc         1 Q6E       0.060033
     33 H3         -48.0240   -44.2090    -7.5270 hc         1 Q6E       0.060033
     34 H4         -47.0360   -43.7020     0.3880 hc         1 Q6E       0.046700
     35 H5         -45.8130   -44.5640    -0.5390 hc         1 Q6E       0.046700
     36 H6         -44.8320   -42.4580     0.3200 hc         1 Q6E       0.053700
     37 H7         -46.1590   -41.5100    -0.3450 hc         1 Q6E       0.053700
     38 H8         -44.1210   -43.1350    -1.9270 hc         1 Q6E       0.060700
     39 H9         -45.0840   -42.3000    -4.0230 hc         1 Q6E       0.062200
     40 H10        -46.3350   -41.4290    -3.1430 hc         1 Q6E       0.062200
     41 H11        -42.2710   -38.6910    -2.6670 ha         1 Q6E       0.156000
     42 H12        -38.1320   -36.3930    -3.5390 h4         1 Q6E       0.047100
     43 H13        -40.8310   -33.1830    -1.6330 h1         1 Q6E       0.071200
     44 H14        -42.1780   -33.3970    -2.7700 h1         1 Q6E       0.071200
     45 H15        -48.4420   -43.2890    -4.0900 hn         1 Q6E       0.309500
     46 H16        -45.9240   -44.4850    -3.1610 h1         1 Q6E       0.079700
     47 H17        -48.0760   -42.8240    -1.7060 hc         1 Q6E       0.046700
     48 H18        -47.9880   -44.5830    -1.7550 hc         1 Q6E       0.046700
     49 H19        -42.2530   -42.3410    -1.9630 hn         1 Q6E       0.169000
     50 H20        -38.1710   -41.0950    -1.4750 h4         1 Q6E       0.032100
     51 H21        -43.2360   -36.5720    -1.9440 hc         1 Q6E       0.078200
     52 H22        -42.0620   -36.9770    -0.6920 hc         1 Q6E       0.078200
     53 H23        -44.3490   -34.8120    -0.0920 hc         1 Q6E       0.042700
     54 H24        -43.8030   -33.1750    -0.4960 hc         1 Q6E       0.042700
     55 H25        -44.3230   -34.2780    -1.7780 hc         1 Q6E       0.042700
     56 H26        -42.1630   -35.2180     1.1740 hc         1 Q6E       0.042700
     57 H27        -40.6040   -34.9830     0.3690 hc         1 Q6E       0.042700
     58 H28        -41.6150   -33.5850     0.7620 hc         1 Q6E       0.042700
@<TRIPOS>BOND
     1     1     2 1   
     2     1    31 1   
     3     1    32 1   
     4     1    33 1   
     5     2    16 2   
     6     2    17 1   
     7     3     4 1   
     8     3    19 1   
     9     3    34 1   
    10     3    35 1   
    11     4     5 1   
    12     4    36 1   
    13     4    37 1   
    14     5     6 1   
    15     5     7 1   
    16     5    38 1   
    17     6    18 1   
    18     6    39 1   
    19     6    40 1   
    20     7    20 2   
    21     7    21 1   
    22     8     9 ar  
    23     8    21 1   
    24     8    24 ar  
    25     9    10 ar  
    26     9    41 1   
    27    10    11 1   
    28    10    22 ar  
    29    11    12 1   
    30    11    14 2   
    31    12    26 2   
    32    12    42 1   
    33    13    14 1   
    34    13    15 1   
    35    13    26 1   
    36    14    27 1   
    37    15    28 1   
    38    15    43 1   
    39    15    44 1   
    40    17    18 1   
    41    17    45 1   
    42    18    19 1   
    43    18    46 1   
    44    19    47 1   
    45    19    48 1   
    46    21    49 1   
    47    22    23 ar  
    48    22    25 1   
    49    23    24 ar  
    50    23    50 1   
    51    27    28 1   
    52    27    51 1   
    53    27    52 1   
    54    28    29 1   
    55    28    30 1   
    56    29    53 1   
    57    29    54 1   
    58    29    55 1   
    59    30    56 1   
    60    30    57 1   
    61    30    58 1   
@<TRIPOS>SUBSTRUCTURE
     1 Q6E         1 TEMP              0 ****  ****    0 ROOT
