@<TRIPOS>MOLECULE
Q6E
   58    61     1     0     0
SMALL
abcg2


@<TRIPOS>ATOM
      1 C1         -48.5800   -43.5810    -6.2670 c3         1 Q6E      -0.180100
      2 C2         -47.4440   -43.8590    -5.3130 c          1 Q6E       0.602100
      3 C7         -46.2150   -43.4420    -0.5640 c6         1 Q6E      -0.071400
      4 C8         -45.2110   -42.3010    -0.6650 c6         1 Q6E      -0.071400
      5 C9         -44.5210   -42.3140    -2.0350 c6         1 Q6E      -0.135700
      6 C10        -45.5520   -42.2470    -3.1610 c6         1 Q6E      -0.085400
      7 C11        -43.5530   -41.1530    -2.1310 c          1 Q6E       0.617100
      8 C14        -41.1060   -40.7080    -2.0580 ca         1 Q6E       0.480900
      9 C15        -41.1220   -39.3310    -2.2470 ca         1 Q6E      -0.187000
     10 C16        -39.9280   -38.6100    -2.2200 ca         1 Q6E       0.102000
     11 C20        -39.9830   -37.1650    -2.3820 cc         1 Q6E      -0.174000
     12 C21        -39.0620   -36.2500    -2.9550 cc         1 Q6E       0.275900
     13 N23        -40.7050   -35.1100    -2.3540 na         1 Q6E       0.133800
     14 C24        -41.0460   -36.3510    -2.0150 cd         1 Q6E      -0.119300
     15 C27        -41.7030   -34.1030    -2.0710 c5         1 Q6E       0.081600
     16 O3         -46.4880   -44.5530    -5.6380 o          1 Q6E      -0.608100
     17 N4         -47.5630   -43.2990    -4.0980 ns         1 Q6E      -0.506900
     18 C5         -46.5630   -43.3890    -3.0540 c6         1 Q6E       0.111700
     19 C6         -47.2420   -43.3930    -1.6880 c6         1 Q6E      -0.089400
     20 O12        -43.9310   -40.0010    -2.2430 o          1 Q6E      -0.586100
     21 N13        -42.2400   -41.5110    -2.0580 ns         1 Q6E      -0.318900
     22 C17        -38.7610   -39.3500    -2.0140 ca         1 Q6E       0.027000
     23 C18        -38.8410   -40.7240    -1.8550 ca         1 Q6E       0.384900
     24 N19        -39.9810   -41.3910    -1.8740 nb         1 Q6E      -0.732000
     25 CL         -37.2030   -38.6120    -1.9010 cl         1 Q6E      -0.187000
     26 N22        -39.5170   -35.0110    -2.9380 nd         1 Q6E      -0.509800
     27 C25        -42.3990   -36.3510    -1.3990 c5         1 Q6E      -0.018100
     28 C26        -42.6210   -34.8460    -1.0680 c5         1 Q6E      -0.070000
     29 C28        -44.0760   -34.4350    -1.2300 c3         1 Q6E      -0.085600
     30 C29        -42.1430   -34.5660     0.3570 c3         1 Q6E      -0.085600
     31 H1         -48.9740   -44.5230    -6.6460 hc         1 Q6E       0.060033
     32 H2         -49.3980   -43.0160    -5.8240 hc         1 Q6E       0.060033
     33 H3         -48.2020   -43.0210    -7.1230 hc         1 Q6E       0.060033
     34 H4         -46.7220   -43.4060     0.4030 hc         1 Q6E       0.046700
     35 H5         -45.6820   -44.3980    -0.5990 hc         1 Q6E       0.046700
     36 H6         -44.4680   -42.3840     0.1310 hc         1 Q6E       0.053700
     37 H7         -45.7220   -41.3430    -0.5270 hc         1 Q6E       0.053700
     38 H8         -43.9650   -43.2550    -2.1230 hc         1 Q6E       0.060700
     39 H9         -45.0540   -42.2900    -4.1320 hc         1 Q6E       0.062200
     40 H10        -46.0870   -41.2940    -3.1130 hc         1 Q6E       0.062200
     41 H11        -42.0500   -38.8190    -2.4350 ha         1 Q6E       0.156000
     42 H12        -38.1000   -36.4590    -3.3950 h4         1 Q6E       0.047100
     43 H13        -41.2500   -33.2070    -1.6480 h1         1 Q6E       0.071200
     44 H14        -42.2250   -33.8260    -2.9900 h1         1 Q6E       0.071200
     45 H15        -48.3510   -42.6950    -3.9240 hn         1 Q6E       0.309500
     46 H16        -46.0380   -44.3390    -3.1840 h1         1 Q6E       0.079700
     47 H17        -47.8540   -42.4890    -1.5870 hc         1 Q6E       0.046700
     48 H18        -47.9220   -44.2450    -1.6190 hc         1 Q6E       0.046700
     49 H19        -42.0370   -42.4940    -1.9480 hn         1 Q6E       0.169000
     50 H20        -37.9390   -41.3030    -1.6960 h4         1 Q6E       0.032100
     51 H21        -43.1430   -36.7150    -2.1140 hc         1 Q6E       0.078200
     52 H22        -42.4660   -36.9870    -0.5140 hc         1 Q6E       0.078200
     53 H23        -44.7140   -34.9900    -0.5410 hc         1 Q6E       0.042700
     54 H24        -44.2080   -33.3720    -1.0190 hc         1 Q6E       0.042700
     55 H25        -44.4340   -34.6230    -2.2440 hc         1 Q6E       0.042700
     56 H26        -42.7300   -35.1350     1.0800 hc         1 Q6E       0.042700
     57 H27        -41.0950   -34.8400     0.4940 hc         1 Q6E       0.042700
     58 H28        -42.2450   -33.5070     0.6000 hc         1 Q6E       0.042700
@<TRIPOS>BOND
     1     1     2 1   
     2     1    31 1   
     3     1    32 1   
     4     1    33 1   
     5     2    16 2   
     6     2    17 1   
     7     3     4 1   
     8     3    19 1   
     9     3    34 1   
    10     3    35 1   
    11     4     5 1   
    12     4    36 1   
    13     4    37 1   
    14     5     6 1   
    15     5     7 1   
    16     5    38 1   
    17     6    18 1   
    18     6    39 1   
    19     6    40 1   
    20     7    20 2   
    21     7    21 1   
    22     8     9 ar  
    23     8    21 1   
    24     8    24 ar  
    25     9    10 ar  
    26     9    41 1   
    27    10    11 1   
    28    10    22 ar  
    29    11    12 1   
    30    11    14 2   
    31    12    26 2   
    32    12    42 1   
    33    13    14 1   
    34    13    15 1   
    35    13    26 1   
    36    14    27 1   
    37    15    28 1   
    38    15    43 1   
    39    15    44 1   
    40    17    18 1   
    41    17    45 1   
    42    18    19 1   
    43    18    46 1   
    44    19    47 1   
    45    19    48 1   
    46    21    49 1   
    47    22    23 ar  
    48    22    25 1   
    49    23    24 ar  
    50    23    50 1   
    51    27    28 1   
    52    27    51 1   
    53    27    52 1   
    54    28    29 1   
    55    28    30 1   
    56    29    53 1   
    57    29    54 1   
    58    29    55 1   
    59    30    56 1   
    60    30    57 1   
    61    30    58 1   
@<TRIPOS>SUBSTRUCTURE
     1 Q6E         1 TEMP              0 ****  ****    0 ROOT
