@<TRIPOS>MOLECULE
Q6F
   37    38     1     0     0
SMALL
No Charge or Current Charge


@<TRIPOS>ATOM
      1 C10         -1.3090     1.4190     0.1930 ca         1 Q6F      -0.142600
      2 C13          0.0020     2.0790     0.5740 c          1 Q6F       0.617700
      3 C15         -1.3900     0.0540    -0.1770 ca         1 Q6F      -0.060500
      4 C17         -2.6270    -0.5200    -0.5230 ca         1 Q6F      -0.116000
      5 C20         -4.9150    -2.8240     0.2660 c3         1 Q6F      -0.343100
      6 C21          4.9700    -0.6710    -0.7500 ca         1 Q6F      -0.101000
      7 C22          4.8930    -1.1200     1.6380 ca         1 Q6F      -0.105000
      8 C09          2.4690     1.7510     0.8920 c3         1 Q6F       0.148300
      9 C11         -3.8030     0.2460    -0.5000 ca         1 Q6F       0.254000
     10 C12          3.5010     0.6490     0.6900 ca         1 Q6F      -0.110300
     11 C14         -2.4960     2.1850     0.1940 ca         1 Q6F      -0.060500
     12 C16         -3.7280     1.6040    -0.1550 ca         1 Q6F      -0.116000
     13 C18          4.0210     0.3520    -0.5910 ca         1 Q6F       0.139000
     14 C19          3.9430    -0.0970     1.8020 ca         1 Q6F      -0.087000
     15 C23          5.4060    -1.4050     0.3630 ca         1 Q6F       0.132000
     16 N07          1.1240     1.2810     0.5690 ns         1 Q6F      -0.501900
     17 N08         -5.0270    -0.3090    -0.8560 nu         1 Q6F      -0.889100
     18 O04          0.0740     3.2630     0.8720 o          1 Q6F      -0.590100
     19 O05         -7.0950    -1.6710    -0.7100 o          1 Q6F      -0.532500
     20 O06         -6.0400    -0.7000     1.3850 o          1 Q6F      -0.532500
     21 S03         -5.9070    -1.3570     0.0840 s6         1 Q6F       1.172100
     22 Cl1          3.4950     1.2410    -2.0210 cl         1 Q6F      -0.176000
     23 Cl2          6.5930    -2.6870     0.1600 cl         1 Q6F      -0.188000
     24 H1          -0.5060    -0.5780    -0.2090 ha         1 Q6F       0.129500
     25 H2          -2.6630    -1.5610    -0.8280 ha         1 Q6F       0.126000
     26 H3          -4.6630    -3.1780    -0.7380 h1         1 Q6F       0.105700
     27 H4          -4.0230    -2.5550     0.8380 h1         1 Q6F       0.105700
     28 H5          -5.5190    -3.5600     0.8060 h1         1 Q6F       0.105700
     29 H7           5.2320    -1.6930     2.4990 ha         1 Q6F       0.136000
     30 H8           2.4840     2.0880     1.9370 h1         1 Q6F       0.071700
     31 H9           2.7120     2.6190     0.2640 h1         1 Q6F       0.071700
     32 H10         -2.4700     3.2390     0.4660 ha         1 Q6F       0.129500
     33 H11         -4.6270     2.2140    -0.1450 ha         1 Q6F       0.126000
     34 H12          3.5500     0.1140     2.7940 ha         1 Q6F       0.121000
     35 H13          1.0030     0.3100     0.3170 hn         1 Q6F       0.316500
     36 H14         -5.7370     0.3710    -1.0940 hn         1 Q6F       0.494000
     37 H6           5.3660    -0.8960    -1.7360 ha         1 Q6F       0.147000
@<TRIPOS>BOND
     1     1     2 1   
     2     1     3 ar  
     3     1    11 ar  
     4     2    16 1   
     5     2    18 2   
     6     3     4 ar  
     7     3    24 1   
     8     4     9 ar  
     9     4    25 1   
    10     5    21 1   
    11     5    26 1   
    12     5    27 1   
    13     5    28 1   
    14     6    13 ar  
    15     6    15 ar  
    16     6    37 1   
    17     7    14 ar  
    18     7    15 ar  
    19     7    29 1   
    20     8    10 1   
    21     8    16 1   
    22     8    30 1   
    23     8    31 1   
    24     9    12 ar  
    25     9    17 1   
    26    10    13 ar  
    27    10    14 ar  
    28    11    12 ar  
    29    11    32 1   
    30    12    33 1   
    31    13    22 1   
    32    14    34 1   
    33    15    23 1   
    34    16    35 1   
    35    17    21 1   
    36    17    36 1   
    37    19    21 2   
    38    20    21 2   
@<TRIPOS>SUBSTRUCTURE
     1 Q6F         1 TEMP              0 ****  ****    0 ROOT
