@<TRIPOS>MOLECULE
Q6F
   37    38     1     0     0
SMALL
abcg2


@<TRIPOS>ATOM
      1 C10         -1.1470     0.8460     0.3750 ca         1 Q6F      -0.142600
      2 C13          0.0790     1.5250     0.8990 c          1 Q6F       0.617700
      3 C15         -1.5140    -0.4440     0.7450 ca         1 Q6F      -0.060500
      4 C17         -2.6620    -1.0250     0.2280 ca         1 Q6F      -0.116000
      5 C20         -5.9800    -1.9890     0.8840 c3         1 Q6F      -0.343100
      6 C21          4.7930     0.4040    -1.1430 ca         1 Q6F      -0.101000
      7 C22          5.4440    -0.8700     0.8010 ca         1 Q6F      -0.105000
      8 C09          2.3780     1.1800     1.7130 c3         1 Q6F       0.148300
      9 C11         -3.4640    -0.3150    -0.6550 ca         1 Q6F       0.254000
     10 C12          3.5180     0.6060     0.9180 ca         1 Q6F      -0.110300
     11 C14         -1.9620     1.5560    -0.5040 ca         1 Q6F      -0.060500
     12 C16         -3.1110     0.9820    -1.0180 ca         1 Q6F      -0.116000
     13 C18          3.7470     0.9460    -0.4140 ca         1 Q6F       0.139000
     14 C19          4.3860    -0.3100     1.5010 ca         1 Q6F      -0.087000
     15 C23          5.6340    -0.5040    -0.5200 ca         1 Q6F       0.132000
     16 N07          1.1030     0.7140     1.2170 ns         1 Q6F      -0.501900
     17 N08         -4.6220    -0.9370    -1.1950 nu         1 Q6F      -0.889100
     18 O04          0.1220     2.7420     1.0070 o          1 Q6F      -0.590100
     19 O05         -7.1000    -1.1240    -1.3420 o          1 Q6F      -0.532500
     20 O06         -6.1480     0.5510     0.2640 o          1 Q6F      -0.532500
     21 S03         -6.0740    -0.7520    -0.3800 s6         1 Q6F       1.172100
     22 CL1          2.7150     2.0890    -1.2020 cl         1 Q6F      -0.176000
     23 CL2          6.9440    -1.1880    -1.4200 cl         1 Q6F      -0.188000
     24 H1          -0.9200    -1.0170     1.4450 ha         1 Q6F       0.129500
     25 H2          -2.9220    -2.0390     0.5010 ha         1 Q6F       0.126000
     26 H3          -5.8320    -2.9620     0.4240 h1         1 Q6F       0.105700
     27 H4          -5.1680    -1.7610     1.5710 h1         1 Q6F       0.105700
     28 H5          -6.9260    -1.9650     1.4240 h1         1 Q6F       0.105700
     29 H7           6.1030    -1.5800     1.2810 ha         1 Q6F       0.136000
     30 H8           2.4980     0.8990     2.7620 h1         1 Q6F       0.071700
     31 H9           2.3850     2.2680     1.6700 h1         1 Q6F       0.071700
     32 H10         -1.6970     2.5640    -0.7920 ha         1 Q6F       0.129500
     33 H11         -3.7330     1.5390    -1.7060 ha         1 Q6F       0.126000
     34 H12          4.2300    -0.5960     2.5330 ha         1 Q6F       0.121000
     35 H13          1.0150    -0.2760     1.0540 hn         1 Q6F       0.316500
     36 H14         -4.7690    -0.7500    -2.1830 hn         1 Q6F       0.494000
     37 H6           4.9510     0.6880    -2.1740 ha         1 Q6F       0.147000
@<TRIPOS>BOND
     1     1     2 1   
     2     1     3 ar  
     3     1    11 ar  
     4     2    16 1   
     5     2    18 2   
     6     3     4 ar  
     7     3    24 1   
     8     4     9 ar  
     9     4    25 1   
    10     5    21 1   
    11     5    26 1   
    12     5    27 1   
    13     5    28 1   
    14     6    13 ar  
    15     6    15 ar  
    16     6    37 1   
    17     7    14 ar  
    18     7    15 ar  
    19     7    29 1   
    20     8    10 1   
    21     8    16 1   
    22     8    30 1   
    23     8    31 1   
    24     9    12 ar  
    25     9    17 1   
    26    10    13 ar  
    27    10    14 ar  
    28    11    12 ar  
    29    11    32 1   
    30    12    33 1   
    31    13    22 1   
    32    14    34 1   
    33    15    23 1   
    34    16    35 1   
    35    17    21 1   
    36    17    36 1   
    37    19    21 2   
    38    20    21 2   
@<TRIPOS>SUBSTRUCTURE
     1 Q6F         1 TEMP              0 ****  ****    0 ROOT
