@<TRIPOS>MOLECULE
Q6G
   70    75     1     0     0
SMALL
No Charge or Current Charge


@<TRIPOS>ATOM
      1 CAA          0.9040     8.0470    -0.1960 c3         1 Q6G      -0.123100
      2 CAB          2.1090     7.8310    -1.1390 c3         1 Q6G       0.186000
      3 CAE          3.3130     8.6850    -0.6740 c3         1 Q6G      -0.123100
      4 OAC          1.7190     8.2920    -2.4400 oh         1 Q6G      -0.647000
      5 CAD          2.4720     6.3120    -1.2050 c3         1 Q6G       0.168600
      6 OAF          3.5870     6.1110    -2.1040 os         1 Q6G      -0.316100
      7 CAG          4.1350     4.8740    -2.3580 cc         1 Q6G       0.123100
      8 CAH          5.2480     4.8130    -3.2450 cc         1 Q6G      -0.106000
      9 CAL          3.5820     3.7760    -1.7160 cd         1 Q6G      -0.206000
     10 NAK          4.1290     2.5300    -2.0380 na         1 Q6G       0.354400
     11 NAO          3.6400     1.3350    -1.5900 nc         1 Q6G      -0.583100
     12 CAN          4.4200     0.4750    -2.2520 cd         1 Q6G       0.420500
     13 CAM          5.3930     1.0790    -3.1050 cd         1 Q6G      -0.217300
     14 CAP          6.2480     0.3530    -3.9690 ch         1 Q6G       0.331700
     15 NAQ          6.9280    -0.2740    -4.6790 n1         1 Q6G      -0.470000
     16 CAJ          5.2050     2.4770    -2.9130 cd         1 Q6G      -0.062000
     17 CAI          5.8810     3.6180    -3.5000 cd         1 Q6G       0.037000
     18 CAR          7.0430     3.5740    -4.4130 ca         1 Q6G      -0.181000
     19 CAS          8.1480     2.7400    -4.1500 ca         1 Q6G       0.424900
     20 NAT          9.2610     2.7000    -4.9130 nb         1 Q6G      -0.748000
     21 CAW          7.1330     4.4400    -5.5190 ca         1 Q6G      -0.009000
     22 CAV          8.2830     4.3890    -6.3190 ca         1 Q6G      -0.243000
     23 CAU          9.3200     3.5000    -5.9880 ca         1 Q6G       0.636900
     24 NAX         10.5030     3.3980    -6.7460 nh         1 Q6G      -0.792300
     25 CAY         11.5910     2.4180    -6.4080 c6         1 Q6G       0.207800
     26 CBC         10.7110     4.1750    -8.0110 c6         1 Q6G       0.207800
     27 CBB         12.0650     3.8590    -8.7550 cy         1 Q6G       0.143000
     28 CBA         13.2920     3.8590    -7.7700 cy         1 Q6G      -0.091400
     29 CAZ         12.7950     2.4070    -7.4240 cy         1 Q6G       0.143000
     30 NBA         12.3970     2.3970    -8.8750 nq         1 Q6G      -0.713600
     31 CBD         11.4570     1.4220    -9.4370 c3         1 Q6G       0.222100
     32 CBE         11.9730     0.0010    -9.3200 ca         1 Q6G      -0.182300
     33 CBF         11.3100    -0.9320    -8.5060 ca         1 Q6G       0.384900
     34 NBG         11.7180    -2.2120    -8.3590 nb         1 Q6G      -0.696000
     35 CBJ         13.1200    -0.4110   -10.0150 ca         1 Q6G      -0.018000
     36 CBI         13.5470    -1.7390    -9.8630 ca         1 Q6G      -0.252000
     37 CBH         12.8180    -2.6100    -9.0250 ca         1 Q6G       0.585300
     38 OBK         13.1910    -3.9230    -8.8380 os         1 Q6G      -0.444300
     39 CBL         14.3450    -4.4920    -9.4820 c3         1 Q6G       0.151900
     40 H1           1.1450     7.7190     0.8220 hc         1 Q6G       0.046700
     41 H2           0.6200     9.1060    -0.1520 hc         1 Q6G       0.046700
     42 H3           0.0320     7.4760    -0.5380 hc         1 Q6G       0.046700
     43 H4           3.6640     8.3530     0.3100 hc         1 Q6G       0.046700
     44 H5           4.1510     8.6060    -1.3770 hc         1 Q6G       0.046700
     45 H6           3.0390     9.7440    -0.5940 hc         1 Q6G       0.046700
     46 H7           1.5910     9.2620    -2.3730 ho         1 Q6G       0.444000
     47 H8           1.5950     5.7480    -1.5500 h1         1 Q6G       0.046700
     48 H9           2.7280     5.9640    -0.1960 h1         1 Q6G       0.046700
     49 H10          5.6120     5.7450    -3.6630 ha         1 Q6G       0.144000
     50 H11          2.7490     3.7680    -1.0280 h4         1 Q6G       0.167000
     51 H12          4.2420    -0.5850    -2.1210 h4         1 Q6G       0.056800
     52 H13          8.1670     2.1110    -3.2610 h4         1 Q6G       0.024100
     53 H14          6.3240     5.1210    -5.7740 ha         1 Q6G       0.118000
     54 H15          8.3570     5.0380    -7.1840 ha         1 Q6G       0.123000
     55 H16         11.1830     1.3970    -6.3700 h1         1 Q6G       0.057450
     56 H17         12.0020     2.6440    -5.4130 h1         1 Q6G       0.057450
     57 H18         10.6980     5.2530    -7.7930 h1         1 Q6G       0.057450
     58 H19          9.8920     3.9720    -8.7170 h1         1 Q6G       0.057450
     59 H20         12.2010     4.4640    -9.6600 h1         1 Q6G       0.089700
     60 H21         14.2730     3.9060    -8.2560 hc         1 Q6G       0.067700
     61 H22         13.2640     4.5900    -6.9560 hc         1 Q6G       0.067700
     62 H23         13.5860     1.7050    -7.1340 h1         1 Q6G       0.089700
     63 H25         11.2920     1.6600   -10.4970 h1         1 Q6G       0.047200
     64 H26         10.4890     1.5060    -8.9250 h1         1 Q6G       0.047200
     65 H27         10.4170    -0.6470    -7.9500 h4         1 Q6G       0.028100
     66 H28         13.6660     0.2830   -10.6520 ha         1 Q6G       0.126000
     67 H29         14.4330    -2.0700   -10.3940 ha         1 Q6G       0.124000
     68 H30         14.4590    -5.5450    -9.1970 h1         1 Q6G       0.042700
     69 H31         14.2460    -4.4460   -10.5750 h1         1 Q6G       0.042700
     70 H32         15.2600    -3.9610    -9.1880 h1         1 Q6G       0.042700
@<TRIPOS>BOND
     1     1     2 1   
     2     1    40 1   
     3     1    41 1   
     4     1    42 1   
     5     2     3 1   
     6     2     4 1   
     7     2     5 1   
     8     3    43 1   
     9     3    44 1   
    10     3    45 1   
    11     4    46 1   
    12     5     6 1   
    13     5    47 1   
    14     5    48 1   
    15     6     7 1   
    16     7     8 1   
    17     7     9 2   
    18     8    17 2   
    19     8    49 1   
    20     9    10 1   
    21     9    50 1   
    22    10    11 1   
    23    10    16 1   
    24    11    12 2   
    25    12    13 1   
    26    12    51 1   
    27    13    14 1   
    28    13    16 2   
    29    14    15 3   
    30    16    17 1   
    31    17    18 1   
    32    18    19 ar  
    33    18    21 ar  
    34    19    20 ar  
    35    19    52 1   
    36    20    23 ar  
    37    21    22 ar  
    38    21    53 1   
    39    22    23 ar  
    40    22    54 1   
    41    23    24 1   
    42    24    25 1   
    43    24    26 1   
    44    25    29 1   
    45    25    55 1   
    46    25    56 1   
    47    26    27 1   
    48    26    57 1   
    49    26    58 1   
    50    27    28 1   
    51    27    30 1   
    52    27    59 1   
    53    28    29 1   
    54    28    60 1   
    55    28    61 1   
    56    29    30 1   
    57    29    62 1   
    58    30    31 1   
    59    31    32 1   
    60    31    63 1   
    61    31    64 1   
    62    32    33 ar  
    63    32    35 ar  
    64    33    34 ar  
    65    33    65 1   
    66    34    37 ar  
    67    35    36 ar  
    68    35    66 1   
    69    36    37 ar  
    70    36    67 1   
    71    37    38 1   
    72    38    39 1   
    73    39    68 1   
    74    39    69 1   
    75    39    70 1   
@<TRIPOS>SUBSTRUCTURE
     1 Q6G         1 TEMP              0 ****  ****    0 ROOT
