@<TRIPOS>MOLECULE
Q6G
   70    75     1     0     0
SMALL
abcg2


@<TRIPOS>ATOM
      1 CAA          1.3070     7.8990     0.1030 c3         1 Q6G      -0.123100
      2 CAB          2.4270     7.8120    -0.9330 c3         1 Q6G       0.186000
      3 CAE          3.6880     8.4870    -0.3980 c3         1 Q6G      -0.123100
      4 OAC          2.0210     8.3900    -2.1610 oh         1 Q6G      -0.647000
      5 CAD          2.6710     6.3380    -1.2210 c3         1 Q6G       0.168600
      6 OAF          3.7320     6.2100    -2.1520 os         1 Q6G      -0.316100
      7 CAG          4.1270     4.9800    -2.4980 cc         1 Q6G       0.123100
      8 CAH          5.2450     4.9120    -3.3690 cc         1 Q6G      -0.106000
      9 CAL          3.5440     3.8280    -2.0570 cd         1 Q6G      -0.206000
     10 NAK          4.0530     2.6440    -2.5020 na         1 Q6G       0.354400
     11 NAO          3.5190     1.4640    -2.1650 nc         1 Q6G      -0.583100
     12 CAN          4.2320     0.5670    -2.8110 cd         1 Q6G       0.420500
     13 CAM          5.2460     1.1530    -3.5800 cd         1 Q6G      -0.217300
     14 CAP          6.1420     0.4770    -4.4260 ch         1 Q6G       0.331700
     15 NAQ          6.8520    -0.1180    -5.1150 n1         1 Q6G      -0.470000
     16 CAJ          5.1130     2.5340    -3.3520 cd         1 Q6G      -0.062000
     17 CAI          5.7570     3.7160    -3.7900 cd         1 Q6G       0.037000
     18 CAR          6.9350     3.6420    -4.6640 ca         1 Q6G      -0.181000
     19 CAS          8.0620     2.9160    -4.3020 ca         1 Q6G       0.424900
     20 NAT          9.1610     2.8310    -5.0290 nb         1 Q6G      -0.748000
     21 CAW          7.0040     4.3280    -5.8800 ca         1 Q6G      -0.009000
     22 CAV          8.1330     4.2490    -6.6590 ca         1 Q6G      -0.243000
     23 CAU          9.2200     3.4720    -6.2000 ca         1 Q6G       0.636900
     24 NAX         10.3640     3.3440    -6.9150 nh         1 Q6G      -0.792300
     25 CAY         11.4220     2.4730    -6.4190 c6         1 Q6G       0.207800
     26 CBC         10.4800     3.9880    -8.2150 c6         1 Q6G       0.207800
     27 CBB         11.8520     3.7270    -8.8100 cy         1 Q6G       0.143000
     28 CBA         12.9290     3.9560    -7.7410 cy         1 Q6G      -0.091400
     29 CAZ         12.6090     2.5020    -7.3650 cy         1 Q6G       0.143000
     30 NBA         12.2150     2.3030    -8.7690 nq         1 Q6G      -0.713600
     31 CBD         11.2670     1.2770    -9.1360 c3         1 Q6G       0.222100
     32 CBE         11.9060    -0.0780    -9.0280 ca         1 Q6G      -0.182300
     33 CBF         11.3430    -1.0900    -8.2680 ca         1 Q6G       0.384900
     34 NBG         11.8600    -2.3060    -8.1370 nb         1 Q6G      -0.696000
     35 CBJ         13.1030    -0.3810    -9.6710 ca         1 Q6G      -0.018000
     36 CBI         13.6620    -1.6390    -9.5500 ca         1 Q6G      -0.252000
     37 CBH         12.9890    -2.5790    -8.7620 ca         1 Q6G       0.585300
     38 OBK         13.4170    -3.8320    -8.5630 os         1 Q6G      -0.444300
     39 CBL         14.6290    -4.2430    -9.1700 c3         1 Q6G       0.151900
     40 H1           1.6030     7.4400     1.0470 hc         1 Q6G       0.046700
     41 H2           1.0610     8.9410     0.3100 hc         1 Q6G       0.046700
     42 H3           0.4000     7.4030    -0.2460 hc         1 Q6G       0.046700
     43 H4           4.0400     7.9920     0.5080 hc         1 Q6G       0.046700
     44 H5           4.4970     8.4770    -1.1290 hc         1 Q6G       0.046700
     45 H6           3.4810     9.5280    -0.1420 hc         1 Q6G       0.046700
     46 H7           1.8490     9.3250    -2.0100 ho         1 Q6G       0.444000
     47 H8           1.7590     5.8790    -1.6220 h1         1 Q6G       0.046700
     48 H9           2.9250     5.8240    -0.2870 h1         1 Q6G       0.046700
     49 H10          5.7160     5.8380    -3.6760 ha         1 Q6G       0.144000
     50 H11          2.7030     3.7510    -1.3870 h4         1 Q6G       0.167000
     51 H12          4.0050    -0.4840    -2.7200 h4         1 Q6G       0.056800
     52 H13          8.0810     2.3850    -3.3540 h4         1 Q6G       0.024100
     53 H14          6.1600     4.9140    -6.2230 ha         1 Q6G       0.118000
     54 H15          8.1680     4.7730    -7.6030 ha         1 Q6G       0.123000
     55 H16         11.0500     1.4500    -6.2970 h1         1 Q6G       0.057450
     56 H17         11.7520     2.8000    -5.4290 h1         1 Q6G       0.057450
     57 H18         10.3430     5.0710    -8.1190 h1         1 Q6G       0.057450
     58 H19          9.7000     3.6270    -8.8960 h1         1 Q6G       0.057450
     59 H20         11.9440     4.2150    -9.7830 h1         1 Q6G       0.089700
     60 H21         13.9240     4.0710    -8.1660 hc         1 Q6G       0.067700
     61 H22         12.7500     4.7260    -6.9900 hc         1 Q6G       0.067700
     62 H23         13.4070     1.8550    -6.9950 h1         1 Q6G       0.089700
     63 H25         10.9630     1.4670   -10.1700 h1         1 Q6G       0.047200
     64 H26         10.3420     1.2790    -8.5400 h1         1 Q6G       0.047200
     65 H27         10.4160    -0.9080    -7.7300 h4         1 Q6G       0.028100
     66 H28         13.6030     0.3690   -10.2710 ha         1 Q6G       0.126000
     67 H29         14.5900    -1.8680   -10.0540 ha         1 Q6G       0.124000
     68 H30         14.7800    -5.2800    -8.8810 h1         1 Q6G       0.042700
     69 H31         14.5800    -4.1850   -10.2590 h1         1 Q6G       0.042700
     70 H32         15.4790    -3.6520    -8.8210 h1         1 Q6G       0.042700
@<TRIPOS>BOND
     1     1     2 1   
     2     1    40 1   
     3     1    41 1   
     4     1    42 1   
     5     2     3 1   
     6     2     4 1   
     7     2     5 1   
     8     3    43 1   
     9     3    44 1   
    10     3    45 1   
    11     4    46 1   
    12     5     6 1   
    13     5    47 1   
    14     5    48 1   
    15     6     7 1   
    16     7     8 1   
    17     7     9 2   
    18     8    17 2   
    19     8    49 1   
    20     9    10 1   
    21     9    50 1   
    22    10    11 1   
    23    10    16 1   
    24    11    12 2   
    25    12    13 1   
    26    12    51 1   
    27    13    14 1   
    28    13    16 2   
    29    14    15 3   
    30    16    17 1   
    31    17    18 1   
    32    18    19 ar  
    33    18    21 ar  
    34    19    20 ar  
    35    19    52 1   
    36    20    23 ar  
    37    21    22 ar  
    38    21    53 1   
    39    22    23 ar  
    40    22    54 1   
    41    23    24 1   
    42    24    25 1   
    43    24    26 1   
    44    25    29 1   
    45    25    55 1   
    46    25    56 1   
    47    26    27 1   
    48    26    57 1   
    49    26    58 1   
    50    27    28 1   
    51    27    30 1   
    52    27    59 1   
    53    28    29 1   
    54    28    60 1   
    55    28    61 1   
    56    29    30 1   
    57    29    62 1   
    58    30    31 1   
    59    31    32 1   
    60    31    63 1   
    61    31    64 1   
    62    32    33 ar  
    63    32    35 ar  
    64    33    34 ar  
    65    33    65 1   
    66    34    37 ar  
    67    35    36 ar  
    68    35    66 1   
    69    36    37 ar  
    70    36    67 1   
    71    37    38 1   
    72    38    39 1   
    73    39    68 1   
    74    39    69 1   
    75    39    70 1   
@<TRIPOS>SUBSTRUCTURE
     1 Q6G         1 TEMP              0 ****  ****    0 ROOT
