@<TRIPOS>MOLECULE
Q6I
   40    42     1     0     0
SMALL
abcg2


@<TRIPOS>ATOM
      1 C02          4.7610     7.9890    21.6160 ca         1 Q6I       0.139400
      2 C04          4.0700     8.7830    17.4850 c          1 Q6I       0.628700
      3 C05          5.7630     8.3350    22.5250 ca         1 Q6I      -0.107000
      4 C06          3.7640     7.0870    21.9940 ca         1 Q6I      -0.107000
      5 C11          5.7730     7.7670    23.7950 ca         1 Q6I      -0.099500
      6 C13          6.4260     9.4830    17.5140 c3         1 Q6I       0.103000
      7 C15          3.1850     6.5610    18.2770 ca         1 Q6I      -0.060000
      8 C16          1.7180     8.4770    18.2320 ca         1 Q6I      -0.044000
      9 C17          4.7920     6.8540    24.1670 ca         1 Q6I      -0.114000
     10 C18          7.2110     8.6590    16.5030 c3         1 Q6I      -0.095400
     11 C19          8.0270     7.5230    17.1140 c3         1 Q6I      -0.073400
     12 C20          2.1310     5.7970    18.7510 ca         1 Q6I      -0.020900
     13 C21          0.6800     7.6960    18.7200 ca         1 Q6I      -0.114000
     14 C22          0.8770     6.3440    18.9870 ca         1 Q6I      -0.070000
     15 N01          4.7010     8.5860    20.3400 ne         1 Q6I      -0.583100
     16 C03          5.4600     8.2040    19.4000 c2         1 Q6I       0.551800
     17 N07          5.2940     8.7480    18.1100 n          1 Q6I      -0.361300
     18 S08          6.7480     7.0040    19.6110 ss         1 Q6I      -0.368200
     19 C09          2.9770     7.9160    18.0280 ca         1 Q6I      -0.126600
     20 O10          3.8810     9.4690    16.4880 o          1 Q6I      -0.572100
     21 C12          3.7880     6.5180    23.2610 ca         1 Q6I      -0.099500
     22 C14          7.2100     6.5120    17.9110 c3         1 Q6I       0.072600
     23 H24          6.5250     9.0460    22.2320 ha         1 Q6I       0.122500
     24 H25          2.9840     6.8340    21.2890 ha         1 Q6I       0.122500
     25 H26          6.5550     8.0390    24.4930 ha         1 Q6I       0.114500
     26 H28          6.0060    10.3650    17.0380 h1         1 Q6I       0.068700
     27 H29          7.0660     9.8130    18.3320 h1         1 Q6I       0.068700
     28 H32          4.1500     6.1070    18.1130 ha         1 Q6I       0.131000
     29 H33          1.5630     9.5280    18.0260 ha         1 Q6I       0.135000
     30 H34          4.8040     6.4120    25.1550 ha         1 Q6I       0.114000
     31 H35          6.5140     8.2590    15.7610 hc         1 Q6I       0.059200
     32 H36          7.8860     9.3350    15.9720 hc         1 Q6I       0.059200
     33 H38          8.8170     7.9290    17.7510 hc         1 Q6I       0.053700
     34 H37          8.5220     6.9760    16.3070 hc         1 Q6I       0.053700
     35 H39         -0.2920     8.1360    18.9000 ha         1 Q6I       0.124000
     36 H40          0.0720     5.7330    19.3690 ha         1 Q6I       0.132000
     37 H27          3.0180     5.8110    23.5420 ha         1 Q6I       0.114500
     38 H31          7.7990     5.6130    18.1000 h1         1 Q6I       0.074700
     39 H30          6.3110     6.2080    17.3760 h1         1 Q6I       0.074700
     40 BR23         2.4280     3.9410    19.1160 br         1 Q6I      -0.104100
@<TRIPOS>BOND
     1     1     3 ar  
     2     1     4 ar  
     3     1    15 1   
     4     2    17 1   
     5     2    19 1   
     6     2    20 2   
     7     3     5 ar  
     8     3    23 1   
     9     4    21 ar  
    10     4    24 1   
    11     5     9 ar  
    12     5    25 1   
    13     6    10 1   
    14     6    17 1   
    15     6    26 1   
    16     6    27 1   
    17     7    12 ar  
    18     7    19 ar  
    19     7    28 1   
    20     8    13 ar  
    21     8    19 ar  
    22     8    29 1   
    23     9    21 ar  
    24     9    30 1   
    25    10    11 1   
    26    10    31 1   
    27    10    32 1   
    28    11    22 1   
    29    11    33 1   
    30    11    34 1   
    31    12    14 ar  
    32    12    40 1   
    33    13    14 ar  
    34    13    35 1   
    35    14    36 1   
    36    15    16 2   
    37    16    17 1   
    38    16    18 1   
    39    18    22 1   
    40    21    37 1   
    41    22    38 1   
    42    22    39 1   
@<TRIPOS>SUBSTRUCTURE
     1 Q6I         1 TEMP              0 ****  ****    0 ROOT
