@<TRIPOS>MOLECULE
Q6I
   40    42     1     0     0
SMALL
No Charge or Current Charge


@<TRIPOS>ATOM
      1 C02          4.8220     7.9990    21.7090 ca         1 Q6I       0.139400
      2 C04          4.0380     8.7910    17.4840 c          1 Q6I       0.628700
      3 C05          5.8700     8.3760    22.5670 ca         1 Q6I      -0.107000
      4 C06          3.8810     7.0450    22.1360 ca         1 Q6I      -0.107000
      5 C11          5.9860     7.7920    23.8420 ca         1 Q6I      -0.099500
      6 C13          6.4250     9.5130    17.5960 c3         1 Q6I       0.103000
      7 C15          3.0770     6.5900    18.4100 ca         1 Q6I      -0.060000
      8 C16          1.5730     8.4280    17.8910 ca         1 Q6I      -0.044000
      9 C17          5.0480     6.8330    24.2620 ca         1 Q6I      -0.114000
     10 C18          7.2810     8.7320    16.5830 c3         1 Q6I      -0.095400
     11 C19          8.0240     7.5150    17.1770 c3         1 Q6I      -0.073400
     12 C20          1.9830     5.8200    18.8370 ca         1 Q6I      -0.020900
     13 C21          0.4790     7.6510    18.3150 ca         1 Q6I      -0.114000
     14 C22          0.6840     6.3490    18.7970 ca         1 Q6I      -0.070000
     15 N01          4.6980     8.5800    20.4360 ne         1 Q6I      -0.583100
     16 C03          5.3850     8.1830    19.4080 c2         1 Q6I       0.551800
     17 N07          5.2960     8.7160    18.1250 n          1 Q6I      -0.361300
     18 S08          6.6400     6.9020    19.5660 ss         1 Q6I      -0.368200
     19 C09          2.8890     7.9180    17.9560 ca         1 Q6I      -0.126600
     20 O10          3.8730     9.5200    16.5120 o          1 Q6I      -0.572100
     21 C12          3.9940     6.4600    23.4100 ca         1 Q6I      -0.099500
     22 C14          7.1090     6.4530    17.8270 c3         1 Q6I       0.072600
     23 H24          6.5960     9.1170    22.2440 ha         1 Q6I       0.122500
     24 H25          3.0630     6.7580    21.4800 ha         1 Q6I       0.122500
     25 H26          6.8000     8.0830    24.5020 ha         1 Q6I       0.114500
     26 H28          6.0530    10.4320    17.1250 h1         1 Q6I       0.068700
     27 H29          7.0640     9.8270    18.4320 h1         1 Q6I       0.068700
     28 H32          4.0640     6.1380    18.4200 ha         1 Q6I       0.131000
     29 H33          1.3960     9.4370    17.5240 ha         1 Q6I       0.135000
     30 H34          5.1360     6.3810    25.2480 ha         1 Q6I       0.114000
     31 H35          6.6430     8.4010    15.7530 hc         1 Q6I       0.059200
     32 H36          8.0210     9.4160    16.1510 hc         1 Q6I       0.059200
     33 H38          8.7710     7.8510    17.9070 hc         1 Q6I       0.053700
     34 H37          8.5820     7.0330    16.3650 hc         1 Q6I       0.053700
     35 H39         -0.5270     8.0620    18.2710 ha         1 Q6I       0.124000
     36 H40         -0.1620     5.7490    19.1280 ha         1 Q6I       0.132000
     37 H27          3.2660     5.7200    23.7350 ha         1 Q6I       0.114500
     38 H31          7.6640     5.5070    17.8760 h1         1 Q6I       0.074700
     39 H30          6.2140     6.2810    17.2160 h1         1 Q6I       0.074700
     40 Br23         2.2700     4.0410    19.4750 br         1 Q6I      -0.104100
@<TRIPOS>BOND
     1     1     3 ar  
     2     1     4 ar  
     3     1    15 1   
     4     2    17 1   
     5     2    19 1   
     6     2    20 2   
     7     3     5 ar  
     8     3    23 1   
     9     4    21 ar  
    10     4    24 1   
    11     5     9 ar  
    12     5    25 1   
    13     6    10 1   
    14     6    17 1   
    15     6    26 1   
    16     6    27 1   
    17     7    12 ar  
    18     7    19 ar  
    19     7    28 1   
    20     8    13 ar  
    21     8    19 ar  
    22     8    29 1   
    23     9    21 ar  
    24     9    30 1   
    25    10    11 1   
    26    10    31 1   
    27    10    32 1   
    28    11    22 1   
    29    11    33 1   
    30    11    34 1   
    31    12    14 ar  
    32    12    40 1   
    33    13    14 ar  
    34    13    35 1   
    35    14    36 1   
    36    15    16 2   
    37    16    17 1   
    38    16    18 1   
    39    18    22 1   
    40    21    37 1   
    41    22    38 1   
    42    22    39 1   
@<TRIPOS>SUBSTRUCTURE
     1 Q6I         1 TEMP              0 ****  ****    0 ROOT
