@<TRIPOS>MOLECULE
Q6J
   48    51     1     0     0
SMALL
No Charge or Current Charge


@<TRIPOS>ATOM
      1 C1           5.4550    14.2060    12.3220 c          1 Q6J       0.577100
      2 C10          5.8290    10.5780    13.7570 c6         1 Q6J      -0.070400
      3 C11          5.0750     9.2500    13.5320 c6         1 Q6J      -0.071400
      4 C12          5.0630     8.8700    12.0300 c6         1 Q6J      -0.044700
      5 C13          4.4040    10.0130    11.1760 c6         1 Q6J      -0.051700
      6 C16          4.3100     7.5330    11.7810 c5         1 Q6J      -0.065700
      7 C17          4.3120     7.1010    10.2870 c5         1 Q6J      -0.039000
      8 C18          3.6270     8.2200     9.4520 c6         1 Q6J      -0.058400
      9 C19          4.3140     9.6020     9.6640 c6         1 Q6J      -0.070400
     10 C2           5.9750    13.0520    13.1850 c6         1 Q6J      -0.183400
     11 C24          4.8100     6.2470    12.4980 c5         1 Q6J      -0.066400
     12 C25          4.1270     5.0890    11.6870 c5         1 Q6J      -0.116400
     13 C26          3.4340     5.7830    10.4650 c5         1 Q6J       0.171300
     14 C27          5.7220     6.8010     9.6620 c3         1 Q6J      -0.072100
     15 C3           5.2080    11.7270    12.9220 c6         1 Q6J      -0.051700
     16 C4           5.1680    11.3690    11.3980 c6         1 Q6J      -0.055700
     17 C5           4.5400    12.5510    10.5950 c6         1 Q6J      -0.065400
     18 C6           5.2770    13.8930    10.8340 c6         1 Q6J      -0.186400
     19 O1           5.0780    15.2640    12.8120 o          1 Q6J      -0.520100
     20 O27          3.3460     4.8880     9.3270 oh         1 Q6J      -0.651000
     21 H1           6.8880    10.4480    13.4920 hc         1 Q6J       0.041700
     22 H2           5.8040    10.8340    14.8250 hc         1 Q6J       0.041700
     23 H3           4.0450     9.3410    13.9050 hc         1 Q6J       0.041700
     24 H4           5.5560     8.4590    14.1220 hc         1 Q6J       0.041700
     25 H5           6.1060     8.7470    11.7090 hc         1 Q6J       0.051700
     26 H6           3.3740    10.1490    11.5350 hc         1 Q6J       0.044700
     27 H7           3.2830     7.7400    12.1130 hc         1 Q6J       0.043700
     28 H8           2.5710     8.3000     9.7430 hc         1 Q6J       0.044700
     29 H9           3.6280     7.9560     8.3850 hc         1 Q6J       0.044700
     30 H10          5.3140     9.6060     9.2120 hc         1 Q6J       0.040200
     31 H11          3.7280    10.3430     9.1060 hc         1 Q6J       0.040200
     32 H12          7.0070    12.8680    12.8550 hc         1 Q6J       0.065200
     33 H13          5.9730    13.3370    14.2450 hc         1 Q6J       0.065200
     34 H14          4.5200     6.2300    13.5550 hc         1 Q6J       0.044700
     35 H15          5.9030     6.1660    12.4720 hc         1 Q6J       0.044700
     36 H16          3.3950     4.5470    12.2970 hc         1 Q6J       0.046700
     37 H17          4.8740     4.3520    11.3690 hc         1 Q6J       0.046700
     38 H18          2.4140     6.0740    10.7570 h1         1 Q6J       0.026700
     39 H19          6.2400     5.9720    10.1550 hc         1 Q6J       0.035700
     40 H20          5.6260     6.5230     8.6060 hc         1 Q6J       0.035700
     41 H21          6.3940     7.6630     9.7060 hc         1 Q6J       0.035700
     42 H22          4.1730    11.8690    13.2660 hc         1 Q6J       0.052700
     43 H23          6.2020    11.2350    11.0470 hc         1 Q6J       0.047700
     44 H24          3.4810    12.6620    10.8680 hc         1 Q6J       0.047700
     45 H25          4.5630    12.3450     9.5180 hc         1 Q6J       0.047700
     46 H26          6.2870    13.7410    10.4310 hc         1 Q6J       0.065700
     47 H27          4.7970    14.7330    10.3150 hc         1 Q6J       0.065700
     48 H28          2.8160     4.1140     9.6190 ho         1 Q6J       0.441000
@<TRIPOS>BOND
     1     1    10 1   
     2     1    18 1   
     3     1    19 2   
     4     2     3 1   
     5     2    15 1   
     6     2    21 1   
     7     2    22 1   
     8     3     4 1   
     9     3    23 1   
    10     3    24 1   
    11     4     5 1   
    12     4     6 1   
    13     4    25 1   
    14     5     9 1   
    15     5    16 1   
    16     5    26 1   
    17     6     7 1   
    18     6    11 1   
    19     6    27 1   
    20     7     8 1   
    21     7    13 1   
    22     7    14 1   
    23     8     9 1   
    24     8    28 1   
    25     8    29 1   
    26     9    30 1   
    27     9    31 1   
    28    10    15 1   
    29    10    32 1   
    30    10    33 1   
    31    11    12 1   
    32    11    34 1   
    33    11    35 1   
    34    12    13 1   
    35    12    36 1   
    36    12    37 1   
    37    13    20 1   
    38    13    38 1   
    39    14    39 1   
    40    14    40 1   
    41    14    41 1   
    42    15    16 1   
    43    15    42 1   
    44    16    17 1   
    45    16    43 1   
    46    17    18 1   
    47    17    44 1   
    48    17    45 1   
    49    18    46 1   
    50    18    47 1   
    51    20    48 1   
@<TRIPOS>SUBSTRUCTURE
     1 Q6J         1 TEMP              0 ****  ****    0 ROOT
