@<TRIPOS>MOLECULE
Q6J
   48    51     1     0     0
SMALL
bcc


@<TRIPOS>ATOM
      1 C1           5.4330    14.1150    12.2790 c          1 Q6J       0.577100
      2 C10          5.8260    10.5600    13.7210 c6         1 Q6J      -0.070400
      3 C11          5.0900     9.2470    13.5070 c6         1 Q6J      -0.071400
      4 C12          5.0600     8.8640    12.0310 c6         1 Q6J      -0.044700
      5 C13          4.4070     9.9850    11.2000 c6         1 Q6J      -0.051700
      6 C16          4.3130     7.5640    11.7900 c5         1 Q6J      -0.065700
      7 C17          4.2800     7.1430    10.3150 c5         1 Q6J      -0.039000
      8 C18          3.5850     8.2410     9.5190 c6         1 Q6J      -0.058400
      9 C19          4.2670     9.5960     9.7240 c6         1 Q6J      -0.070400
     10 C2           5.9860    12.9890    13.1090 c6         1 Q6J      -0.183400
     11 C24          4.7590     6.2970    12.5220 c5         1 Q6J      -0.066400
     12 C25          4.1330     5.1530    11.6910 c5         1 Q6J      -0.116400
     13 C26          3.5080     5.8280    10.4490 c5         1 Q6J       0.148100
     14 C27          5.6760     6.8690     9.7430 c3         1 Q6J      -0.072100
     15 C3           5.2190    11.6810    12.8860 c6         1 Q6J      -0.051700
     16 C4           5.1580    11.3110    11.3980 c6         1 Q6J      -0.055700
     17 C5           4.5400    12.4640    10.6080 c6         1 Q6J      -0.065400
     18 C6           5.2870    13.7850    10.8190 c6         1 Q6J      -0.186400
     19 O1           5.1370    15.1940    12.7450 o          1 Q6J      -0.520100
     20 O27          3.5600     5.0610     9.2710 oh         1 Q6J      -0.588800
     21 H1           6.8800    10.4380    13.4430 hc         1 Q6J       0.041700
     22 H2           5.8130    10.8370    14.7790 hc         1 Q6J       0.041700
     23 H3           4.0610     9.3370    13.8760 hc         1 Q6J       0.041700
     24 H4           5.5630     8.4550    14.0940 hc         1 Q6J       0.041700
     25 H5           6.1010     8.7450    11.7000 hc         1 Q6J       0.051700
     26 H6           3.3890    10.1220    11.5980 hc         1 Q6J       0.044700
     27 H7           3.2650     7.7480    12.0800 hc         1 Q6J       0.043700
     28 H8           2.5430     8.3190     9.8520 hc         1 Q6J       0.044700
     29 H9           3.5550     7.9990     8.4520 hc         1 Q6J       0.044700
     30 H10          5.2540     9.5970     9.2490 hc         1 Q6J       0.040200
     31 H11          3.6820    10.3530     9.1970 hc         1 Q6J       0.040200
     32 H12          7.0300    12.8380    12.8060 hc         1 Q6J       0.065200
     33 H13          5.9860    13.2670    14.1650 hc         1 Q6J       0.065200
     34 H14          4.4340     6.2830    13.5630 hc         1 Q6J       0.044700
     35 H15          5.8500     6.2220    12.5330 hc         1 Q6J       0.044700
     36 H16          3.3820     4.6000    12.2590 hc         1 Q6J       0.046700
     37 H17          4.8880     4.4270    11.3820 hc         1 Q6J       0.046700
     38 H18          2.4620     6.0820    10.6830 h1         1 Q6J       0.026700
     39 H19          6.1860     6.0510    10.2520 hc         1 Q6J       0.035700
     40 H20          5.6100     6.6030     8.6880 hc         1 Q6J       0.035700
     41 H21          6.3260     7.7400     9.8130 hc         1 Q6J       0.035700
     42 H22          4.1840    11.8320    13.2270 hc         1 Q6J       0.052700
     43 H23          6.1910    11.1680    11.0430 hc         1 Q6J       0.047700
     44 H24          3.4920    12.5840    10.9040 hc         1 Q6J       0.047700
     45 H25          4.5400    12.2490     9.5390 hc         1 Q6J       0.047700
     46 H26          6.2980    13.6840    10.4070 hc         1 Q6J       0.065700
     47 H27          4.7970    14.6060    10.2930 hc         1 Q6J       0.065700
     48 H28          3.0490     4.2590     9.4120 ho         1 Q6J       0.402000
@<TRIPOS>BOND
     1     1    10 1   
     2     1    18 1   
     3     1    19 2   
     4     2     3 1   
     5     2    15 1   
     6     2    21 1   
     7     2    22 1   
     8     3     4 1   
     9     3    23 1   
    10     3    24 1   
    11     4     5 1   
    12     4     6 1   
    13     4    25 1   
    14     5     9 1   
    15     5    16 1   
    16     5    26 1   
    17     6     7 1   
    18     6    11 1   
    19     6    27 1   
    20     7     8 1   
    21     7    13 1   
    22     7    14 1   
    23     8     9 1   
    24     8    28 1   
    25     8    29 1   
    26     9    30 1   
    27     9    31 1   
    28    10    15 1   
    29    10    32 1   
    30    10    33 1   
    31    11    12 1   
    32    11    34 1   
    33    11    35 1   
    34    12    13 1   
    35    12    36 1   
    36    12    37 1   
    37    13    20 1   
    38    13    38 1   
    39    14    39 1   
    40    14    40 1   
    41    14    41 1   
    42    15    16 1   
    43    15    42 1   
    44    16    17 1   
    45    16    43 1   
    46    17    18 1   
    47    17    44 1   
    48    17    45 1   
    49    18    46 1   
    50    18    47 1   
    51    20    48 1   
@<TRIPOS>SUBSTRUCTURE
     1 Q6J         1 TEMP              0 ****  ****    0 ROOT
