@<TRIPOS>MOLECULE
Q6K
   72    75     1     0     0
SMALL
No Charge or Current Charge


@<TRIPOS>ATOM
      1 C10         44.2210    -9.9820    -3.2650 cc         1 Q6K      -0.232000
      2 N12         42.7120   -11.7960    -3.7530 nb         1 Q6K      -0.242000
      3 C13         41.4660   -12.2670    -3.9110 ca         1 Q6K       0.392900
      4 C15         42.1980   -14.6760    -4.4750 ca         1 Q6K       0.301000
      5 C20         43.9770   -16.8520    -4.8300 ca         1 Q6K       0.205000
      6 C22         45.2600   -18.3990    -6.3320 c3         1 Q6K       0.164100
      7 C24         46.5830   -19.2210    -3.5780 c3         1 Q6K       0.159800
      8 C26         46.2200   -21.4010    -2.4340 c3         1 Q6K       0.149100
      9 C28         44.3900   -15.5410    -5.1630 ca         1 Q6K      -0.032000
     10 C01         46.6860    -7.2320    -3.5950 c3         1 Q6K       0.062900
     11 C03         46.4640    -9.7350    -3.3130 ca         1 Q6K      -0.063200
     12 C04         45.4800   -10.6840    -3.2110 ca         1 Q6K      -0.050800
     13 C05         45.7830   -12.0500    -3.0740 ca         1 Q6K      -0.039000
     14 C06         47.1410   -12.4320    -3.0640 ca         1 Q6K      -0.146000
     15 C07         48.1570   -11.4570    -3.1820 ca         1 Q6K      -0.096000
     16 C08         47.8240   -10.0920    -3.3040 ca         1 Q6K      -0.129000
     17 C09         44.5040    -8.6280    -3.4250 cd         1 Q6K      -0.119100
     18 C11         42.8560   -10.5080    -3.3970 ca         1 Q6K       0.276800
     19 C16         41.7780   -15.9970    -4.1760 ca         1 Q6K       0.085100
     20 C18         39.9800   -17.4950    -3.3550 c3         1 Q6K       0.152900
     21 C19         42.6740   -17.0740    -4.3530 ca         1 Q6K      -0.185000
     22 C23         45.0870   -18.8900    -3.8530 c3         1 Q6K       0.180800
     23 C27         48.2960   -20.1440    -2.0670 c3         1 Q6K       0.149100
     24 C30         46.3710   -14.2770    -6.2110 c          1 Q6K       0.605100
     25 C31         47.8810   -14.4730    -6.4000 c3         1 Q6K      -0.161400
     26 C32         48.2430   -14.7550    -7.8750 c3         1 Q6K      -0.087100
     27 C34         43.4910   -14.4680    -4.9940 ca         1 Q6K      -0.103000
     28 C36         40.4560   -10.2930    -3.3640 ca         1 Q6K       0.149900
     29 C37         41.7190    -9.7030    -3.1870 ca         1 Q6K      -0.288000
     30 N02         45.9070    -8.4670    -3.4250 na         1 Q6K      -0.076700
     31 N21         44.8540   -17.9510    -4.9810 nh         1 Q6K      -0.786400
     32 N25         46.8510   -20.0610    -2.3750 n3         1 Q6K      -0.712600
     33 N29         45.7310   -15.3460    -5.6010 ns         1 Q6K      -0.146000
     34 N35         40.3260   -11.5830    -3.7270 nb         1 Q6K      -0.250000
     35 O17         40.4880   -16.1930    -3.6970 os         1 Q6K      -0.348100
     36 O33         45.8090   -13.2490    -6.5660 o          1 Q6K      -0.581100
     37 H1          46.3360   -18.2420    -6.4820 h1         1 Q6K       0.035367
     38 H2          45.0340   -19.4650    -6.4720 h1         1 Q6K       0.035367
     39 H3          44.7200   -17.8350    -7.1050 h1         1 Q6K       0.035367
     40 H4          46.9990   -19.7110    -4.4690 h1         1 Q6K       0.035700
     41 H5          47.1090   -18.2630    -3.4700 h1         1 Q6K       0.035700
     42 H6          46.4430   -21.9730    -1.5230 h1         1 Q6K       0.030700
     43 H7          45.1280   -21.3220    -2.5140 h1         1 Q6K       0.030700
     44 H8          46.5910   -21.9710    -3.2960 h1         1 Q6K       0.030700
     45 H9          47.3560    -7.1000    -2.7370 h1         1 Q6K       0.050700
     46 H10         47.2790    -7.2960    -4.5150 h1         1 Q6K       0.050700
     47 H11         46.0080    -6.3720    -3.6600 h1         1 Q6K       0.050700
     48 H12         45.0020   -12.7990    -2.9700 ha         1 Q6K       0.144000
     49 H13         47.4060   -13.4820    -2.9610 ha         1 Q6K       0.106000
     50 H14         49.2020   -11.7600    -3.1730 ha         1 Q6K       0.106000
     51 H15         48.6040    -9.3390    -3.3900 ha         1 Q6K       0.110000
     52 H16         43.8350    -7.7850    -3.5720 h4         1 Q6K       0.212000
     53 H17         38.9450   -17.4170    -3.0000 h1         1 Q6K       0.039367
     54 H18         39.9910   -18.1600    -4.2280 h1         1 Q6K       0.039367
     55 H19         40.5790   -17.9510    -2.5570 h1         1 Q6K       0.039367
     56 H20         42.3760   -18.0920    -4.1260 ha         1 Q6K       0.118000
     57 H21         44.6700   -18.4610    -2.9320 h1         1 Q6K       0.044200
     58 H22         44.5410   -19.8230    -4.0480 h1         1 Q6K       0.044200
     59 H23         48.4640   -20.6970    -1.1340 h1         1 Q6K       0.030700
     60 H24         48.8400   -20.6550    -2.8730 h1         1 Q6K       0.030700
     61 H25         48.7260   -19.1410    -1.9450 h1         1 Q6K       0.030700
     62 H26         48.2310   -15.3170    -5.7930 hc         1 Q6K       0.064200
     63 H27         48.3950   -13.5560    -6.0890 hc         1 Q6K       0.064200
     64 H28         49.3260   -14.8890    -7.9850 hc         1 Q6K       0.040033
     65 H29         47.7470   -15.6680    -8.2280 hc         1 Q6K       0.040033
     66 H30         47.9340   -13.9220    -8.5180 hc         1 Q6K       0.040033
     67 H31         43.7940   -13.4650    -5.2550 ha         1 Q6K       0.171000
     68 H32         39.5380    -9.7260    -3.2130 h4         1 Q6K       0.016100
     69 H33         41.8010    -8.6630    -2.8900 ha         1 Q6K       0.125000
     70 H34         40.3530   -13.9320    -4.0980 hn         1 Q6K       0.522000
     71 H36         46.3280   -16.1430    -5.4190 hn         1 Q6K       0.170000
     72 N14         41.3090   -13.6070    -4.2460 nu         1 Q6K      -0.929900
@<TRIPOS>BOND
     1     1    12 1   
     2     1    17 2   
     3     1    18 1   
     4     2     3 ar  
     5     2    18 ar  
     6     3    34 ar  
     7     3    72 1   
     8     4    19 ar  
     9     4    27 ar  
    10     4    72 1   
    11     5     9 ar  
    12     5    21 ar  
    13     5    31 1   
    14     6    31 1   
    15     6    37 1   
    16     6    38 1   
    17     6    39 1   
    18     7    22 1   
    19     7    32 1   
    20     7    40 1   
    21     7    41 1   
    22     8    32 1   
    23     8    42 1   
    24     8    43 1   
    25     8    44 1   
    26     9    27 ar  
    27     9    33 1   
    28    10    30 1   
    29    10    45 1   
    30    10    46 1   
    31    10    47 1   
    32    11    12 ar  
    33    11    16 ar  
    34    11    30 1   
    35    12    13 ar  
    36    13    14 ar  
    37    13    48 1   
    38    14    15 ar  
    39    14    49 1   
    40    15    16 ar  
    41    15    50 1   
    42    16    51 1   
    43    17    30 1   
    44    17    52 1   
    45    18    29 ar  
    46    19    21 ar  
    47    19    35 1   
    48    20    35 1   
    49    20    53 1   
    50    20    54 1   
    51    20    55 1   
    52    21    56 1   
    53    22    31 1   
    54    22    57 1   
    55    22    58 1   
    56    23    32 1   
    57    23    59 1   
    58    23    60 1   
    59    23    61 1   
    60    24    25 1   
    61    24    33 1   
    62    24    36 2   
    63    25    26 1   
    64    25    62 1   
    65    25    63 1   
    66    26    64 1   
    67    26    65 1   
    68    26    66 1   
    69    27    67 1   
    70    28    29 ar  
    71    28    34 ar  
    72    28    68 1   
    73    29    69 1   
    74    33    71 1   
    75    70    72 1   
@<TRIPOS>SUBSTRUCTURE
     1 Q6K         1 TEMP              0 ****  ****    0 ROOT
