@<TRIPOS>MOLECULE
Q6K
   72    75     1     0     0
SMALL
bcc


@<TRIPOS>ATOM
      1 C10         44.1510   -10.0880    -3.3440 cc         1 Q6K      -0.232000
      2 N12         42.6900   -11.8820    -3.8970 nb         1 Q6K      -0.768000
      3 C13         41.4680   -12.3500    -4.1280 ca         1 Q6K       0.918900
      4 C15         42.3000   -14.6400    -4.5920 ca         1 Q6K       0.162600
      5 C20         44.2210   -16.6680    -4.7710 ca         1 Q6K       0.066600
      6 C22         45.3160   -18.2780    -6.1670 c3         1 Q6K       0.164100
      7 C24         46.6600   -19.2540    -3.6470 c3         1 Q6K       0.159800
      8 C26         45.9850   -20.9990    -2.1250 c3         1 Q6K       0.149100
      9 C28         44.5070   -15.3810    -5.2410 ca         1 Q6K       0.060600
     10 C01         46.5060    -7.3870    -2.7040 c3         1 Q6K       0.033600
     11 C03         46.4090    -9.8480    -3.1150 ca         1 Q6K      -0.063200
     12 C04         45.3990   -10.8050    -3.3530 ca         1 Q6K      -0.050800
     13 C05         45.7750   -12.1410    -3.5300 ca         1 Q6K      -0.057000
     14 C06         47.1150   -12.4730    -3.4760 ca         1 Q6K      -0.164000
     15 C07         48.1010   -11.5020    -3.2460 ca         1 Q6K      -0.114000
     16 C08         47.7610   -10.1760    -3.0590 ca         1 Q6K      -0.147000
     17 C09         44.4740    -8.7700    -3.1020 cd         1 Q6K      -0.069100
     18 C11         42.8120   -10.5960    -3.5690 ca         1 Q6K       0.605100
     19 C16         42.0100   -15.9300    -4.1190 ca         1 Q6K       0.085100
     20 C18         40.4040   -17.4010    -3.1740 c3         1 Q6K       0.129700
     21 C19         42.9660   -16.9290    -4.2280 ca         1 Q6K      -0.203000
     22 C23         45.2870   -18.5990    -3.7570 c3         1 Q6K       0.180800
     23 C27         48.2560   -20.2840    -2.2090 c3         1 Q6K       0.149100
     24 C30         46.2550   -14.2200    -6.5710 c          1 Q6K       0.672100
     25 C31         47.7320   -14.3290    -6.8780 c3         1 Q6K      -0.161400
     26 C32         47.9720   -15.2910    -8.0420 c3         1 Q6K      -0.087100
     27 C34         43.5330   -14.3900    -5.1760 ca         1 Q6K      -0.121000
     28 C36         40.4620   -10.3790    -3.7120 ca         1 Q6K       0.478200
     29 C37         41.6780    -9.7810    -3.4600 ca         1 Q6K      -0.436600
     30 N02         45.8090    -8.6230    -2.9680 na         1 Q6K      -0.047400
     31 N21         45.2400   -17.6460    -4.8550 nh         1 Q6K      -0.648000
     32 N25         46.8740   -19.8790    -2.3550 n3         1 Q6K      -0.712600
     33 N29         45.8110   -15.1490    -5.6910 ns         1 Q6K      -0.472100
     34 N35         40.3300   -11.6550    -4.0510 nb         1 Q6K      -0.776000
     35 O17         40.7830   -16.1040    -3.5860 os         1 Q6K      -0.324900
     36 O33         45.5330   -13.3980    -7.1120 o          1 Q6K      -0.581100
     37 H1          46.2690   -18.7930    -6.2860 h1         1 Q6K       0.035367
     38 H2          44.5110   -19.0080    -6.3250 h1         1 Q6K       0.035367
     39 H3          45.2480   -17.5290    -6.9550 h1         1 Q6K       0.035367
     40 H4          46.8090   -19.9780    -4.4660 h1         1 Q6K       0.035700
     41 H5          47.4130   -18.4710    -3.7740 h1         1 Q6K       0.035700
     42 H6          46.2130   -21.4550    -1.1610 h1         1 Q6K       0.030700
     43 H7          44.9450   -20.6740    -2.0910 h1         1 Q6K       0.030700
     44 H8          46.0690   -21.7820    -2.8950 h1         1 Q6K       0.030700
     45 H9          47.0050    -7.4220    -1.7360 h1         1 Q6K       0.050700
     46 H10         47.2500    -7.1950    -3.4750 h1         1 Q6K       0.050700
     47 H11         45.7920    -6.5680    -2.6980 h1         1 Q6K       0.050700
     48 H12         45.0250   -12.8980    -3.7010 ha         1 Q6K       0.162000
     49 H13         47.4120   -13.5050    -3.6160 ha         1 Q6K       0.124000
     50 H14         49.1420   -11.7940    -3.2130 ha         1 Q6K       0.124000
     51 H15         48.5200    -9.4250    -2.8800 ha         1 Q6K       0.128000
     52 H16         43.8270    -7.9090    -3.0260 h4         1 Q6K       0.162000
     53 H17         39.3750   -17.3280    -2.8290 h1         1 Q6K       0.039367
     54 H18         40.4520   -18.1190    -3.9950 h1         1 Q6K       0.039367
     55 H19         41.0240   -17.7640    -2.3500 h1         1 Q6K       0.039367
     56 H20         42.7500   -17.9300    -3.8790 ha         1 Q6K       0.136000
     57 H21         45.0940   -18.0590    -2.8270 h1         1 Q6K       0.044200
     58 H22         44.5040   -19.3640    -3.8590 h1         1 Q6K       0.044200
     59 H23         48.4230   -20.6840    -1.2080 h1         1 Q6K       0.030700
     60 H24         48.5670   -21.0540    -2.9320 h1         1 Q6K       0.030700
     61 H25         48.9140   -19.4230    -2.3380 h1         1 Q6K       0.030700
     62 H26         48.2860   -14.6640    -5.9990 hc         1 Q6K       0.064200
     63 H27         48.1000   -13.3350    -7.1340 hc         1 Q6K       0.064200
     64 H28         49.0330   -15.3410    -8.2800 hc         1 Q6K       0.040033
     65 H29         47.6380   -16.3010    -7.8020 hc         1 Q6K       0.040033
     66 H30         47.4440   -14.9650    -8.9380 hc         1 Q6K       0.040033
     67 H31         43.7470   -13.4020    -5.5430 ha         1 Q6K       0.189000
     68 H32         39.5460    -9.8040    -3.6390 h4         1 Q6K       0.016100
     69 H33         41.7360    -8.7370    -3.1920 ha         1 Q6K       0.143000
     70 H34         40.3530   -13.9640    -4.5120 hn         1 Q6K       0.466800
     71 H36         46.4690   -15.8450    -5.3630 hn         1 Q6K       0.336500
     72 N14         41.3140   -13.6580    -4.4770 nu         1 Q6K      -0.736300
@<TRIPOS>BOND
     1     1    12 1   
     2     1    17 2   
     3     1    18 1   
     4     2     3 ar  
     5     2    18 ar  
     6     3    34 ar  
     7     3    72 1   
     8     4    19 ar  
     9     4    27 ar  
    10     4    72 1   
    11     5     9 ar  
    12     5    21 ar  
    13     5    31 1   
    14     6    31 1   
    15     6    37 1   
    16     6    38 1   
    17     6    39 1   
    18     7    22 1   
    19     7    32 1   
    20     7    40 1   
    21     7    41 1   
    22     8    32 1   
    23     8    42 1   
    24     8    43 1   
    25     8    44 1   
    26     9    27 ar  
    27     9    33 1   
    28    10    30 1   
    29    10    45 1   
    30    10    46 1   
    31    10    47 1   
    32    11    12 ar  
    33    11    16 ar  
    34    11    30 1   
    35    12    13 ar  
    36    13    14 ar  
    37    13    48 1   
    38    14    15 ar  
    39    14    49 1   
    40    15    16 ar  
    41    15    50 1   
    42    16    51 1   
    43    17    30 1   
    44    17    52 1   
    45    18    29 ar  
    46    19    21 ar  
    47    19    35 1   
    48    20    35 1   
    49    20    53 1   
    50    20    54 1   
    51    20    55 1   
    52    21    56 1   
    53    22    31 1   
    54    22    57 1   
    55    22    58 1   
    56    23    32 1   
    57    23    59 1   
    58    23    60 1   
    59    23    61 1   
    60    24    25 1   
    61    24    33 1   
    62    24    36 2   
    63    25    26 1   
    64    25    62 1   
    65    25    63 1   
    66    26    64 1   
    67    26    65 1   
    68    26    66 1   
    69    27    67 1   
    70    28    29 ar  
    71    28    34 ar  
    72    28    68 1   
    73    29    69 1   
    74    33    71 1   
    75    70    72 1   
@<TRIPOS>SUBSTRUCTURE
     1 Q6K         1 TEMP              0 ****  ****    0 ROOT
