@<TRIPOS>MOLECULE
Q6L
  100   101     1     0     0
SMALL
abcg2


@<TRIPOS>ATOM
      1 C18        202.8940   213.2260   205.5270 ce         1 Q6L      -0.179000
      2 C19        203.7880   212.2060   205.0660 ce         1 Q6L      -0.170000
      3 C03        198.8560   221.4770   208.3390 c2         1 Q6L      -0.104400
      4 C05        196.4240   222.0690   208.0150 c6         1 Q6L      -0.068400
      5 C07        197.6340   222.9200   209.9800 c6         1 Q6L      -0.078200
      6 C11        200.0720   220.6800   207.9200 c3         1 Q6L      -0.033200
      7 C13        201.3640   218.5140   208.1980 c2         1 Q6L      -0.095400
      8 C14        201.2610   217.3460   207.5370 ce         1 Q6L      -0.192000
      9 C22        204.0380   208.7860   203.6150 ce         1 Q6L      -0.063200
     10 C27        206.3700   204.7180   201.8840 ce         1 Q6L      -0.060200
     11 C28        205.1830   203.8500   201.6010 c3         1 Q6L      -0.054900
     12 C30        207.9610   202.9660   201.1100 c2         1 Q6L      -0.193200
     13 C31        209.3460   202.4690   200.8190 c6         1 Q6L       0.011700
     14 C33        210.3360   200.1840   201.0530 c2         1 Q6L      -0.216200
     15 C36        209.6090   202.3380   199.2950 c6         1 Q6L      -0.029000
     16 O08        195.4560   223.7940   209.3290 oh         1 Q6L      -0.660000
     17 O39        212.1870   199.6000   199.7310 oh         1 Q6L      -0.656000
     18 C02        198.8240   222.1210   209.5140 c2         1 Q6L      -0.110400
     19 C04        197.6940   221.5190   207.3530 c6         1 Q6L      -0.000800
     20 C06        196.6920   223.2990   208.8520 c6         1 Q6L       0.173300
     21 C12        200.1320   219.2880   208.5720 c3         1 Q6L      -0.043200
     22 C15        202.3520   216.4990   207.1160 ce         1 Q6L      -0.166000
     23 C16        202.1750   215.3100   206.5040 cf         1 Q6L      -0.180000
     24 C17        203.2340   214.4200   206.0800 cf         1 Q6L      -0.059200
     25 C20        203.3780   211.0190   204.5570 cf         1 Q6L      -0.172000
     26 C21        204.3070   210.0210   204.1150 cf         1 Q6L      -0.177000
     27 C23        202.6540   208.2380   203.4390 c3         1 Q6L      -0.054900
     28 C24        205.1610   207.9590   203.2390 ce         1 Q6L      -0.176000
     29 C25        205.1020   206.7080   202.7310 cf         1 Q6L      -0.170000
     30 C26        206.2880   205.9730   202.3860 cf         1 Q6L      -0.182000
     31 C29        207.6940   204.1810   201.6020 ce         1 Q6L      -0.191000
     32 C32        209.6370   201.1880   201.5810 c2         1 Q6L      -0.100400
     33 C34        210.8950   200.1800   199.6660 c6         1 Q6L       0.208500
     34 C35        210.9320   201.5930   199.1060 c6         1 Q6L      -0.106400
     35 C37        209.7400   203.7280   198.6770 c3         1 Q6L      -0.085600
     36 C38        208.4710   201.5930   198.5890 c3         1 Q6L      -0.085600
     37 C40        209.1500   201.1350   202.9980 c3         1 Q6L      -0.052900
     38 C41        204.6520   214.8620   206.2930 c3         1 Q6L      -0.056900
     39 C42        202.6650   219.1360   208.6100 c3         1 Q6L      -0.057900
     40 H1         201.8340   213.0070   205.4270 ha         1 Q6L       0.170000
     41 H2         204.8570   212.3820   205.1340 ha         1 Q6L       0.170000
     42 H4         195.6820   222.2820   207.2400 hc         1 Q6L       0.054700
     43 H5         195.9910   221.2980   208.6640 hc         1 Q6L       0.054700
     44 H6         197.9860   223.8200   210.4990 hc         1 Q6L       0.050200
     45 H7         197.0810   222.3410   210.7300 hc         1 Q6L       0.050200
     46 H8         197.1060   219.4340   207.6370 hc         1 Q6L       0.035533
     47 H9         196.4930   220.1730   206.1590 hc         1 Q6L       0.035533
     48 H10        198.1780   219.6800   206.2550 hc         1 Q6L       0.035533
     49 H11        198.3050   223.4250   206.4590 hc         1 Q6L       0.035533
     50 H12        198.9660   222.0160   205.6430 hc         1 Q6L       0.035533
     51 H13        197.2730   222.4360   205.4230 hc         1 Q6L       0.035533
     52 H14        200.9820   221.2340   208.1600 hc         1 Q6L       0.046200
     53 H15        200.2620   216.9890   207.2950 ha         1 Q6L       0.170000
     54 H16        204.2370   204.3370   201.8240 hc         1 Q6L       0.042033
     55 H17        205.1610   203.5510   200.5510 hc         1 Q6L       0.042033
     56 H18        205.2260   202.9300   202.1880 hc         1 Q6L       0.042033
     57 H19        207.1480   202.2780   200.8980 ha         1 Q6L       0.173000
     58 H20        210.0480   203.2240   201.2040 hc         1 Q6L       0.058700
     59 H21        210.5190   199.2940   201.6500 ha         1 Q6L       0.185000
     60 H23        195.6340   224.5610   209.8820 ho         1 Q6L       0.441000
     61 H24        212.5110   199.5010   198.8300 ho         1 Q6L       0.439000
     62 H25        199.5890   221.7800   211.4860 hc         1 Q6L       0.039700
     63 H26        200.7930   221.4960   210.2380 hc         1 Q6L       0.039700
     64 H27        200.3210   223.1380   210.6620 hc         1 Q6L       0.039700
     65 H29        197.1860   224.0610   208.2310 h1         1 Q6L       0.033700
     66 H30        199.2380   218.7210   208.3050 hc         1 Q6L       0.049700
     67 H31        203.3610   216.8430   207.3130 ha         1 Q6L       0.171000
     68 H32        201.1590   214.9720   206.3140 ha         1 Q6L       0.170000
     69 H33        202.3130   210.8230   204.4860 ha         1 Q6L       0.173000
     70 H34        205.3550   210.2970   204.1990 ha         1 Q6L       0.167000
     71 H35        201.8790   208.9370   203.7410 hc         1 Q6L       0.042033
     72 H36        202.4700   207.9710   202.3960 hc         1 Q6L       0.042033
     73 H37        202.5200   207.3260   204.0240 hc         1 Q6L       0.042033
     74 H38        206.1430   208.4020   203.3860 ha         1 Q6L       0.169000
     75 H39        204.1370   206.2390   202.5760 ha         1 Q6L       0.174000
     76 H40        207.2250   206.5010   202.5520 ha         1 Q6L       0.168000
     77 H41        208.5290   204.8440   201.8180 ha         1 Q6L       0.169000
     78 H43        210.2510   199.5550   199.0270 h1         1 Q6L       0.035700
     79 H44        211.7300   202.1450   199.6140 hc         1 Q6L       0.048200
     80 H45        211.1890   201.5670   198.0410 hc         1 Q6L       0.048200
     81 H46        210.5690   204.2840   199.1220 hc         1 Q6L       0.035867
     82 H47        209.9280   203.6530   197.6040 hc         1 Q6L       0.035867
     83 H48        208.8320   204.3170   198.8150 hc         1 Q6L       0.035867
     84 H49        207.5660   202.2010   198.5470 hc         1 Q6L       0.035867
     85 H50        208.7540   201.3610   197.5600 hc         1 Q6L       0.035867
     86 H51        208.2110   200.6550   199.0820 hc         1 Q6L       0.035867
     87 H52        209.4850   202.0130   203.5550 hc         1 Q6L       0.041700
     88 H53        208.0600   201.1320   203.0550 hc         1 Q6L       0.041700
     89 H54        209.5150   200.2460   203.5120 hc         1 Q6L       0.041700
     90 H55        204.8410   215.8150   205.7940 hc         1 Q6L       0.042033
     91 H56        204.8550   215.0170   207.3540 hc         1 Q6L       0.042033
     92 H57        205.3830   214.1500   205.9220 hc         1 Q6L       0.042033
     93 H58        202.5850   219.5520   209.6170 hc         1 Q6L       0.040700
     94 H59        203.5000   218.4390   208.6060 hc         1 Q6L       0.040700
     95 H60        202.9320   219.9670   207.9530 hc         1 Q6L       0.040700
     96 H3         200.0910   220.5510   206.8350 hc         1 Q6L       0.046200
     97 H22        200.1080   219.4130   209.6600 hc         1 Q6L       0.049700
     98 C09        197.3570   220.1190   206.8250 c3         1 Q6L      -0.082100
     99 C10        198.0840   222.4020   206.1550 c3         1 Q6L      -0.082100
    100 C01        199.9470   222.1220   210.5110 c3         1 Q6L      -0.054900
@<TRIPOS>BOND
     1     1     2 1   
     2     1    24 2   
     3     1    40 1   
     4     2    25 2   
     5     2    41 1   
     6     3     6 1   
     7     3    18 2   
     8     3    19 1   
     9     4    19 1   
    10     4    20 1   
    11     4    42 1   
    12     4    43 1   
    13     5    18 1   
    14     5    20 1   
    15     5    44 1   
    16     5    45 1   
    17     6    21 1   
    18     6    52 1   
    19     6    96 1   
    20     7     8 2   
    21     7    21 1   
    22     7    39 1   
    23     8    22 1   
    24     8    53 1   
    25     9    26 2   
    26     9    27 1   
    27     9    28 1   
    28    10    11 1   
    29    10    30 2   
    30    10    31 1   
    31    11    54 1   
    32    11    55 1   
    33    11    56 1   
    34    12    13 1   
    35    12    31 2   
    36    12    57 1   
    37    13    15 1   
    38    13    32 1   
    39    13    58 1   
    40    14    32 2   
    41    14    33 1   
    42    14    59 1   
    43    15    34 1   
    44    15    35 1   
    45    15    36 1   
    46    16    20 1   
    47    16    60 1   
    48    17    33 1   
    49    17    61 1   
    50    18   100 1   
    51    19    98 1   
    52    19    99 1   
    53    20    65 1   
    54    21    66 1   
    55    21    97 1   
    56    22    23 2   
    57    22    67 1   
    58    23    24 1   
    59    23    68 1   
    60    24    38 1   
    61    25    26 1   
    62    25    69 1   
    63    26    70 1   
    64    27    71 1   
    65    27    72 1   
    66    27    73 1   
    67    28    29 2   
    68    28    74 1   
    69    29    30 1   
    70    29    75 1   
    71    30    76 1   
    72    31    77 1   
    73    32    37 1   
    74    33    34 1   
    75    33    78 1   
    76    34    79 1   
    77    34    80 1   
    78    35    81 1   
    79    35    82 1   
    80    35    83 1   
    81    36    84 1   
    82    36    85 1   
    83    36    86 1   
    84    37    87 1   
    85    37    88 1   
    86    37    89 1   
    87    38    90 1   
    88    38    91 1   
    89    38    92 1   
    90    39    93 1   
    91    39    94 1   
    92    39    95 1   
    93    46    98 1   
    94    47    98 1   
    95    48    98 1   
    96    49    99 1   
    97    50    99 1   
    98    51    99 1   
    99    62   100 1   
   100    63   100 1   
   101    64   100 1   
@<TRIPOS>SUBSTRUCTURE
     1 Q6L         1 TEMP              0 ****  ****    0 ROOT
