@<TRIPOS>MOLECULE
Q6L
  100   101     1     0     0
SMALL
No Charge or Current Charge


@<TRIPOS>ATOM
      1 C18        203.0800   213.3860   205.6460 ce         1 Q6L      -0.179000
      2 C19        204.0480   212.3860   205.1670 ce         1 Q6L      -0.170000
      3 C03        198.6640   221.4660   208.4260 c2         1 Q6L      -0.104400
      4 C05        196.1600   221.8180   207.8880 c6         1 Q6L      -0.068400
      5 C07        197.5870   223.3810   209.8720 c6         1 Q6L      -0.078200
      6 C11        199.8970   220.5900   208.1330 c3         1 Q6L      -0.033200
      7 C13        201.1930   218.4540   208.6630 c2         1 Q6L      -0.095400
      8 C14        201.1670   217.3800   207.8370 ce         1 Q6L      -0.192000
      9 C22        204.3950   209.0940   203.3620 ce         1 Q6L      -0.063200
     10 C27        206.5350   204.8350   201.6070 ce         1 Q6L      -0.060200
     11 C28        205.2450   204.1240   201.2030 c3         1 Q6L      -0.054900
     12 C30        207.9480   202.8260   201.0380 c2         1 Q6L      -0.193200
     13 C31        209.3000   202.1650   200.7630 c6         1 Q6L       0.011700
     14 C33        210.3600   199.9970   201.4600 c2         1 Q6L      -0.216200
     15 C36        209.4470   201.7870   199.2240 c6         1 Q6L      -0.029000
     16 O08        195.3800   224.2910   209.3360 oh         1 Q6L      -0.660000
     17 O39        212.6190   199.7080   199.6350 oh         1 Q6L      -0.656000
     18 C02        198.6760   222.3540   209.4780 c2         1 Q6L      -0.110400
     19 C04        197.5150   221.3060   207.3640 c6         1 Q6L      -0.000800
     20 C06        196.5710   223.7210   208.7850 c6         1 Q6L       0.173300
     21 C12        199.9470   219.2780   208.9560 c3         1 Q6L      -0.043200
     22 C15        202.3270   216.5570   207.4660 ce         1 Q6L      -0.166000
     23 C16        202.2520   215.4600   206.6590 cf         1 Q6L      -0.180000
     24 C17        203.3530   214.5840   206.2440 cf         1 Q6L      -0.059200
     25 C20        203.7020   211.2380   204.5250 cf         1 Q6L      -0.172000
     26 C21        204.6610   210.2370   204.0620 cf         1 Q6L      -0.177000
     27 C23        202.9920   208.7220   202.8860 c3         1 Q6L      -0.054900
     28 C24        205.5010   208.1940   202.9770 ce         1 Q6L      -0.176000
     29 C25        205.4010   206.9220   202.4920 cf         1 Q6L      -0.170000
     30 C26        206.5510   206.0900   202.1490 cf         1 Q6L      -0.182000
     31 C29        207.8070   204.1420   201.3230 ce         1 Q6L      -0.191000
     32 C32        209.5740   201.0310   201.7790 c2         1 Q6L      -0.100400
     33 C34        211.2100   199.9130   199.5350 c6         1 Q6L       0.208500
     34 C35        210.8890   201.2680   198.8810 c6         1 Q6L      -0.106400
     35 C37        209.2070   203.0640   198.3530 c3         1 Q6L      -0.085600
     36 C38        208.3690   200.7430   198.7810 c3         1 Q6L      -0.085600
     37 C40        208.9970   201.2060   203.1760 c3         1 Q6L      -0.052900
     38 C41        204.7770   215.0970   206.4440 c3         1 Q6L      -0.056900
     39 C42        202.4430   218.9910   209.3480 c3         1 Q6L      -0.057900
     40 H1         202.0300   213.1170   205.5140 ha         1 Q6L       0.170000
     41 H2         205.1070   212.5720   205.3500 ha         1 Q6L       0.170000
     42 H4         195.4160   221.9140   207.0860 hc         1 Q6L       0.054700
     43 H5         195.7500   221.1400   208.6480 hc         1 Q6L       0.054700
     44 H6         198.0580   224.3210   210.1930 hc         1 Q6L       0.050200
     45 H7         197.0600   222.9910   210.7540 hc         1 Q6L       0.050200
     46 H8         197.0330   219.1780   207.7470 hc         1 Q6L       0.035533
     47 H9         196.4400   219.7670   206.1980 hc         1 Q6L       0.035533
     48 H10        198.1420   219.3920   206.3810 hc         1 Q6L       0.035533
     49 H11        198.1070   223.1840   206.3720 hc         1 Q6L       0.035533
     50 H12        198.8350   221.7540   205.6420 hc         1 Q6L       0.035533
     51 H13        197.1350   222.1230   205.3420 hc         1 Q6L       0.035533
     52 H14        200.8130   221.1590   208.3240 hc         1 Q6L       0.046200
     53 H15        200.2170   217.0870   207.3860 ha         1 Q6L       0.170000
     54 H16        204.4530   204.8260   200.9240 hc         1 Q6L       0.042033
     55 H17        205.3880   203.4820   200.3260 hc         1 Q6L       0.042033
     56 H18        204.8670   203.4990   202.0200 hc         1 Q6L       0.042033
     57 H19        207.0890   202.1550   201.0100 ha         1 Q6L       0.173000
     58 H20        210.5200   203.3630   201.0880 hc         1 Q6L       0.058700
     59 H21        210.6050   199.1980   202.1600 ha         1 Q6L       0.185000
     60 H23        195.6380   225.1570   209.7240 ho         1 Q6L       0.441000
     61 H24        212.9610   199.6800   198.7150 ho         1 Q6L       0.439000
     62 H25        199.4510   222.4310   211.5110 hc         1 Q6L       0.039700
     63 H26        200.5920   221.7030   210.4070 hc         1 Q6L       0.039700
     64 H27        200.3390   223.4440   210.3680 hc         1 Q6L       0.039700
     65 H29        197.0230   224.3920   208.0390 h1         1 Q6L       0.033700
     66 H30        199.0550   218.6830   208.7380 hc         1 Q6L       0.049700
     67 H31        203.2940   216.8510   207.8730 ha         1 Q6L       0.171000
     68 H32        201.2610   215.1830   206.2930 ha         1 Q6L       0.170000
     69 H33        202.6410   211.0510   204.3540 ha         1 Q6L       0.173000
     70 H34        205.7030   210.4290   204.3270 ha         1 Q6L       0.167000
     71 H35        202.3620   209.6020   202.7180 hc         1 Q6L       0.042033
     72 H36        203.0120   208.1920   201.9270 hc         1 Q6L       0.042033
     73 H37        202.4850   208.0800   203.6150 hc         1 Q6L       0.042033
     74 H38        206.5060   208.5960   203.1170 ha         1 Q6L       0.169000
     75 H39        204.4100   206.4830   202.3750 ha         1 Q6L       0.174000
     76 H40        207.5280   206.5250   202.3690 ha         1 Q6L       0.168000
     77 H41        208.7000   204.7670   201.3700 ha         1 Q6L       0.169000
     78 H43        210.7360   199.1000   198.9650 h1         1 Q6L       0.035700
     79 H44        211.6210   202.0170   199.2160 hc         1 Q6L       0.048200
     80 H45        211.0200   201.1780   197.7940 hc         1 Q6L       0.048200
     81 H46        209.8970   203.8700   198.6290 hc         1 Q6L       0.035867
     82 H47        209.3580   202.8570   197.2860 hc         1 Q6L       0.035867
     83 H48        208.1880   203.4540   198.4570 hc         1 Q6L       0.035867
     84 H49        207.3530   201.1500   198.8510 hc         1 Q6L       0.035867
     85 H50        208.5190   200.4340   197.7390 hc         1 Q6L       0.035867
     86 H51        208.3940   199.8380   199.3980 hc         1 Q6L       0.035867
     87 H52        209.2730   202.1790   203.6000 hc         1 Q6L       0.041700
     88 H53        207.9030   201.1380   203.1710 hc         1 Q6L       0.041700
     89 H54        209.3640   200.4340   203.8630 hc         1 Q6L       0.041700
     90 H55        204.8340   216.1890   206.3740 hc         1 Q6L       0.042033
     91 H56        205.1680   214.8020   207.4250 hc         1 Q6L       0.042033
     92 H57        205.4660   214.7210   205.6810 hc         1 Q6L       0.042033
     93 H58        202.2040   219.6110   210.2200 hc         1 Q6L       0.040700
     94 H59        203.0860   218.1800   209.7090 hc         1 Q6L       0.040700
     95 H60        203.0320   219.6060   208.6570 hc         1 Q6L       0.040700
     96 H3         199.9850   220.3490   207.0690 hc         1 Q6L       0.046200
     97 H22        199.8810   219.5070   210.0260 hc         1 Q6L       0.049700
     98 C09        197.2810   219.8280   206.9000 c3         1 Q6L      -0.082100
     99 C10        197.9200   222.1370   206.1090 c3         1 Q6L      -0.082100
    100 C01        199.8280   222.4800   210.4820 c3         1 Q6L      -0.054900
@<TRIPOS>BOND
     1     1     2 1   
     2     1    24 2   
     3     1    40 1   
     4     2    25 2   
     5     2    41 1   
     6     3     6 1   
     7     3    18 2   
     8     3    19 1   
     9     4    19 1   
    10     4    20 1   
    11     4    42 1   
    12     4    43 1   
    13     5    18 1   
    14     5    20 1   
    15     5    44 1   
    16     5    45 1   
    17     6    21 1   
    18     6    52 1   
    19     6    96 1   
    20     7     8 2   
    21     7    21 1   
    22     7    39 1   
    23     8    22 1   
    24     8    53 1   
    25     9    26 2   
    26     9    27 1   
    27     9    28 1   
    28    10    11 1   
    29    10    30 2   
    30    10    31 1   
    31    11    54 1   
    32    11    55 1   
    33    11    56 1   
    34    12    13 1   
    35    12    31 2   
    36    12    57 1   
    37    13    15 1   
    38    13    32 1   
    39    13    58 1   
    40    14    32 2   
    41    14    33 1   
    42    14    59 1   
    43    15    34 1   
    44    15    35 1   
    45    15    36 1   
    46    16    20 1   
    47    16    60 1   
    48    17    33 1   
    49    17    61 1   
    50    18   100 1   
    51    19    98 1   
    52    19    99 1   
    53    20    65 1   
    54    21    66 1   
    55    21    97 1   
    56    22    23 2   
    57    22    67 1   
    58    23    24 1   
    59    23    68 1   
    60    24    38 1   
    61    25    26 1   
    62    25    69 1   
    63    26    70 1   
    64    27    71 1   
    65    27    72 1   
    66    27    73 1   
    67    28    29 2   
    68    28    74 1   
    69    29    30 1   
    70    29    75 1   
    71    30    76 1   
    72    31    77 1   
    73    32    37 1   
    74    33    34 1   
    75    33    78 1   
    76    34    79 1   
    77    34    80 1   
    78    35    81 1   
    79    35    82 1   
    80    35    83 1   
    81    36    84 1   
    82    36    85 1   
    83    36    86 1   
    84    37    87 1   
    85    37    88 1   
    86    37    89 1   
    87    38    90 1   
    88    38    91 1   
    89    38    92 1   
    90    39    93 1   
    91    39    94 1   
    92    39    95 1   
    93    46    98 1   
    94    47    98 1   
    95    48    98 1   
    96    49    99 1   
    97    50    99 1   
    98    51    99 1   
    99    62   100 1   
   100    63   100 1   
   101    64   100 1   
@<TRIPOS>SUBSTRUCTURE
     1 Q6L         1 TEMP              0 ****  ****    0 ROOT
