@<TRIPOS>MOLECULE
Q6M
   38    37     1     0     0
SMALL
bcc


@<TRIPOS>ATOM
      1 C11          3.9820     0.4910     0.0110 c3         1 Q6M       0.159800
      2 C12          5.2030    -0.4150     0.0080 c3         1 Q6M      -0.082400
      3 C13          6.5050     0.3700    -0.0210 c3         1 Q6M       0.149800
      4 C01         -5.0490    -0.9830     1.2240 c3         1 Q6M      -0.111100
      5 C02         -4.8210    -0.1160    -0.0070 c3         1 Q6M       0.349600
      6 C05         -3.4920     0.6410     0.0410 c3         1 Q6M      -0.097400
      7 C06         -2.2480    -0.2380     0.0630 c3         1 Q6M      -0.072400
      8 C07         -0.9660     0.5870     0.0410 c3         1 Q6M      -0.075400
      9 C08          0.2930    -0.2710     0.0630 c3         1 Q6M      -0.079400
     10 C09          1.5650     0.5610     0.0370 c3         1 Q6M       0.160800
     11 N10          2.7510    -0.2750     0.0600 n7         1 Q6M      -0.804200
     12 N14          7.6530    -0.5270    -0.0300 n8         1 Q6M      -0.882800
     13 O03         -4.8810    -0.9800    -1.1150 oh         1 Q6M      -0.622800
     14 O04         -5.8100     0.8810    -0.1000 oh         1 Q6M      -0.622800
     15 H1           4.0160     1.1400     0.8930 h1         1 Q6M       0.026200
     16 H2           4.0240     1.1640    -0.8620 h1         1 Q6M       0.026200
     17 H3           5.1850    -1.0590     0.8920 hc         1 Q6M       0.053200
     18 H4           5.1610    -1.0760    -0.8660 hc         1 Q6M       0.053200
     19 H5           6.4870     1.0630    -0.8750 h1         1 Q6M       0.025700
     20 H6           6.5650     0.9930     0.8760 h1         1 Q6M       0.025700
     21 H7          -4.2970    -1.7660     1.3170 hc         1 Q6M       0.049700
     22 H8          -5.0180    -0.3740     2.1270 hc         1 Q6M       0.049700
     23 H9          -6.0260    -1.4700     1.1790 hc         1 Q6M       0.049700
     24 H10         -3.4440     1.3050    -0.8310 hc         1 Q6M       0.055200
     25 H11         -3.4910     1.2910     0.9210 hc         1 Q6M       0.055200
     26 H12         -2.2470    -0.8710     0.9560 hc         1 Q6M       0.045700
     27 H13         -2.2540    -0.9170    -0.7950 hc         1 Q6M       0.045700
     28 H14         -0.9590     1.2220    -0.8520 hc         1 Q6M       0.037700
     29 H15         -0.9570     1.2680     0.8980 hc         1 Q6M       0.037700
     30 H16          0.2950    -0.9040     0.9560 hc         1 Q6M       0.046200
     31 H17          0.2830    -0.9490    -0.7980 hc         1 Q6M       0.046200
     32 H18          1.5420     1.2330    -0.8380 h1         1 Q6M       0.027200
     33 H19          1.5880     1.2120     0.9170 h1         1 Q6M       0.027200
     34 H20          2.7240    -0.8960    -0.7410 hn         1 Q6M       0.348800
     35 H22          7.6680    -1.0340    -0.9070 hn         1 Q6M       0.336300
     36 H23          8.5060     0.0170    -0.0190 hn         1 Q6M       0.336300
     37 H25         -4.6360    -0.4850    -1.9060 ho         1 Q6M       0.414000
     38 H26         -6.6780     0.4640    -0.0340 ho         1 Q6M       0.414000
@<TRIPOS>BOND
     1     1     2 1   
     2     1    11 1   
     3     1    15 1   
     4     1    16 1   
     5     2     3 1   
     6     2    17 1   
     7     2    18 1   
     8     3    12 1   
     9     3    19 1   
    10     3    20 1   
    11     4     5 1   
    12     4    21 1   
    13     4    22 1   
    14     4    23 1   
    15     5     6 1   
    16     5    13 1   
    17     5    14 1   
    18     6     7 1   
    19     6    24 1   
    20     6    25 1   
    21     7     8 1   
    22     7    26 1   
    23     7    27 1   
    24     8     9 1   
    25     8    28 1   
    26     8    29 1   
    27     9    10 1   
    28     9    30 1   
    29     9    31 1   
    30    10    11 1   
    31    10    32 1   
    32    10    33 1   
    33    11    34 1   
    34    12    35 1   
    35    12    36 1   
    36    13    37 1   
    37    14    38 1   
@<TRIPOS>SUBSTRUCTURE
     1 Q6M         1 TEMP              0 ****  ****    0 ROOT
