@<TRIPOS>MOLECULE
Q6M
   38    37     1     0     0
SMALL
No Charge or Current Charge


@<TRIPOS>ATOM
      1 C11          4.0570     0.5720    -0.0090 c3         1 Q6M       0.159800
      2 C12          5.2370    -0.4180     0.0320 c3         1 Q6M      -0.082400
      3 C13          6.6030     0.2960     0.0260 c3         1 Q6M       0.149800
      4 C01         -5.1040    -1.0780     1.2440 c3         1 Q6M      -0.111100
      5 C02         -4.9060    -0.1650     0.0170 c3         1 Q6M       0.396000
      6 C05         -3.5780     0.6410     0.0300 c3         1 Q6M      -0.097400
      7 C06         -2.2770    -0.2040     0.0370 c3         1 Q6M      -0.072400
      8 C07         -0.9980     0.6630     0.0050 c3         1 Q6M      -0.075400
      9 C08          0.3010    -0.1730     0.0170 c3         1 Q6M      -0.079400
     10 C09          1.5740     0.6970    -0.0130 c3         1 Q6M       0.160800
     11 N10          2.7750    -0.1550     0.0050 n7         1 Q6M      -0.859400
     12 N14          7.7210    -0.6650     0.0700 n8         1 Q6M      -0.993200
     13 O03         -4.9980    -0.9330    -1.1570 oh         1 Q6M      -0.685000
     14 O04         -5.9830     0.7330    -0.0630 oh         1 Q6M      -0.685000
     15 H1           4.1240     1.2430     0.8590 h1         1 Q6M       0.026200
     16 H2           4.1370     1.1880    -0.9160 h1         1 Q6M       0.026200
     17 H3           5.1560    -1.0370     0.9340 hc         1 Q6M       0.053200
     18 H4           5.1750    -1.0910    -0.8330 hc         1 Q6M       0.053200
     19 H5           6.6990     0.9060    -0.8830 h1         1 Q6M       0.025700
     20 H6           6.6760     0.9590     0.9000 h1         1 Q6M       0.025700
     21 H7          -4.3430    -1.8660     1.2740 hc         1 Q6M       0.049700
     22 H8          -5.0320    -0.4990     2.1720 hc         1 Q6M       0.049700
     23 H9          -6.0850    -1.5660     1.2190 hc         1 Q6M       0.049700
     24 H10         -3.5590     1.3100    -0.8390 hc         1 Q6M       0.055200
     25 H11         -3.5760     1.2910     0.9140 hc         1 Q6M       0.055200
     26 H12         -2.2510    -0.8330     0.9350 hc         1 Q6M       0.045700
     27 H13         -2.2710    -0.8800    -0.8280 hc         1 Q6M       0.045700
     28 H14         -1.0110     1.2930    -0.8940 hc         1 Q6M       0.037700
     29 H15         -0.9990     1.3380     0.8690 hc         1 Q6M       0.037700
     30 H16          0.3170    -0.8010     0.9170 hc         1 Q6M       0.046200
     31 H17          0.3030    -0.8480    -0.8480 hc         1 Q6M       0.046200
     32 H18          1.5610     1.3200    -0.9190 h1         1 Q6M       0.027200
     33 H19          1.5690     1.3690     0.8570 h1         1 Q6M       0.027200
     34 H20          2.7450    -0.7650    -0.8210 hn         1 Q6M       0.404000
     35 H22          7.7100    -1.2300    -0.7880 hn         1 Q6M       0.391500
     36 H23          8.6080    -0.1500     0.0060 hn         1 Q6M       0.391500
     37 H25         -4.5890    -0.3840    -1.8560 ho         1 Q6M       0.453000
     38 H26         -6.7690     0.2190     0.2110 ho         1 Q6M       0.453000
@<TRIPOS>BOND
     1     1     2 1   
     2     1    11 1   
     3     1    15 1   
     4     1    16 1   
     5     2     3 1   
     6     2    17 1   
     7     2    18 1   
     8     3    12 1   
     9     3    19 1   
    10     3    20 1   
    11     4     5 1   
    12     4    21 1   
    13     4    22 1   
    14     4    23 1   
    15     5     6 1   
    16     5    13 1   
    17     5    14 1   
    18     6     7 1   
    19     6    24 1   
    20     6    25 1   
    21     7     8 1   
    22     7    26 1   
    23     7    27 1   
    24     8     9 1   
    25     8    28 1   
    26     8    29 1   
    27     9    10 1   
    28     9    30 1   
    29     9    31 1   
    30    10    11 1   
    31    10    32 1   
    32    10    33 1   
    33    11    34 1   
    34    12    35 1   
    35    12    36 1   
    36    13    37 1   
    37    14    38 1   
@<TRIPOS>SUBSTRUCTURE
     1 Q6M         1 TEMP              0 ****  ****    0 ROOT
