@<TRIPOS>MOLECULE
Q6N
  100   105     1     0     0
SMALL
No Charge or Current Charge


@<TRIPOS>ATOM
      1 O5         -27.4520     5.6370   -12.5460 o          1 Q6N      -0.714000
      2 C38        -27.1120     4.6130   -13.1270 c          1 Q6N       0.722000
      3 O4         -26.2660     3.8760   -12.6320 o          1 Q6N      -0.714000
      4 C28        -27.2690     4.5500   -14.7090 c6         1 Q6N       0.002400
      5 C36        -27.6290     3.0660   -15.1290 c6         1 Q6N      -0.048200
      6 C37        -27.7520     2.9260   -16.6830 c6         1 Q6N      -0.064400
      7 C31        -28.8950     3.8410   -17.2010 c6         1 Q6N      -0.058700
      8 C30        -28.5940     5.3150   -16.8060 c6         1 Q6N      -0.064400
      9 C35        -28.9790     2.6120   -14.4900 c6         1 Q6N      -0.064400
     10 C33        -30.1340     3.5150   -15.0050 c6         1 Q6N      -0.058700
     11 C32        -30.2370     3.3960   -16.5530 c6         1 Q6N      -0.065400
     12 C34        -29.8330     4.9890   -14.6240 c6         1 Q6N      -0.064400
     13 C29        -28.4710     5.4310   -15.2520 c6         1 Q6N      -0.048200
     14 N4         -25.9910     4.9160   -15.3920 ns         1 Q6N      -0.448900
     15 C27        -25.2630     6.0880   -15.2800 c          1 Q6N       0.524600
     16 O3         -25.6330     7.0420   -14.6050 o          1 Q6N      -0.607100
     17 C10        -23.9980     6.0600   -16.0890 cc         1 Q6N       0.213500
     18 C9         -23.1350     7.1750   -16.1440 cc         1 Q6N      -0.139000
     19 N          -23.5880     5.0500   -16.8450 nd         1 Q6N      -0.500800
     20 N1         -22.4130     5.5610   -17.3650 na         1 Q6N       0.218000
     21 C8         -22.0600     6.8580   -16.9270 cd         1 Q6N      -0.098000
     22 C7         -21.0020     7.7760   -17.4440 ca         1 Q6N      -0.091000
     23 C5         -19.6690     7.3280   -17.6350 ca         1 Q6N       0.197100
     24 O1         -19.3200     6.0650   -17.1970 os         1 Q6N      -0.317100
     25 C6         -18.0130     5.5030   -17.4010 c3         1 Q6N       0.148400
     26 C4         -18.6950     8.1950   -18.1760 ca         1 Q6N      -0.247500
     27 C3         -19.0230     9.5130   -18.5080 ca         1 Q6N      -0.036000
     28 C2         -20.3230     9.9800   -18.2930 ca         1 Q6N      -0.247500
     29 C1         -21.3150     9.1260   -17.7620 ca         1 Q6N       0.197100
     30 O          -22.6190     9.5670   -17.6140 os         1 Q6N      -0.317100
     31 C          -23.0470    10.8830   -18.0010 c3         1 Q6N       0.148400
     32 C11        -21.7060     4.9950   -18.4310 ca         1 Q6N       0.047800
     33 C16        -20.9350     3.8440   -18.1690 ca         1 Q6N      -0.086000
     34 C15        -20.1490     3.2610   -19.1740 ca         1 Q6N      -0.083000
     35 C14        -20.1210     3.8230   -20.4610 ca         1 Q6N      -0.149600
     36 C13        -20.9680     4.9120   -20.7510 ca         1 Q6N      -0.089000
     37 C12        -21.7720     5.5100   -19.7560 ca         1 Q6N      -0.064300
     38 C24        -22.7180     6.6580   -20.1600 c3         1 Q6N      -0.020400
     39 C26        -23.9300     6.1110   -20.9430 c3         1 Q6N      -0.084100
     40 C25        -21.9940     7.7730   -20.9500 c3         1 Q6N      -0.084100
     41 C17        -19.2090     3.2470   -21.5180 c          1 Q6N       0.613700
     42 O2         -19.0930     2.0340   -21.6490 o          1 Q6N      -0.589100
     43 N2         -18.5680     4.1480   -22.4050 n          1 Q6N      -0.408800
     44 C18        -17.8450     3.5980   -23.5740 c3         1 Q6N       0.085300
     45 C19        -18.0770     5.4580   -21.8990 c3         1 Q6N       0.107000
     46 C20        -18.4840     6.6690   -22.7640 c3         1 Q6N      -0.096400
     47 C21        -18.1120     8.0090   -22.0920 c3         1 Q6N       0.163800
     48 N3         -18.3020     9.2100   -22.9430 n3         1 Q6N      -0.714600
     49 C23        -19.7090     9.4450   -23.3460 c3         1 Q6N       0.149600
     50 C22        -17.7010    10.4180   -22.3360 c3         1 Q6N       0.149600
     51 H47        -26.8340     2.3890   -14.7840 hc         1 Q6N       0.075200
     52 H48        -27.9610     1.8800   -16.9490 hc         1 Q6N       0.033325
     53 H49        -26.8070     3.1750   -17.1830 hc         1 Q6N       0.033325
     54 H39        -28.9680     3.7580   -18.2940 hc         1 Q6N       0.023700
     55 H37        -27.6780     5.6640   -17.3020 hc         1 Q6N       0.033325
     56 H38        -29.3980     5.9700   -17.1690 hc         1 Q6N       0.033325
     57 H45        -29.1820     1.5630   -14.7460 hc         1 Q6N       0.033325
     58 H46        -28.9270     2.6490   -13.3930 hc         1 Q6N       0.033325
     59 H42        -31.0820     3.2010   -14.5470 hc         1 Q6N       0.023700
     60 H41        -31.0630     4.0170   -16.9270 hc         1 Q6N       0.019200
     61 H40        -30.4730     2.3620   -16.8390 hc         1 Q6N       0.019200
     62 H43        -30.6410     5.6410   -14.9850 hc         1 Q6N       0.033325
     63 H44        -29.8240     5.1010   -13.5330 hc         1 Q6N       0.033325
     64 H36        -28.2930     6.4840   -14.9940 hc         1 Q6N       0.075200
     65 H35        -25.5640     4.2160   -15.9870 hn         1 Q6N       0.311500
     66 H9         -23.3170     8.1150   -15.6340 ha         1 Q6N       0.160000
     67 H6         -17.9750     4.4820   -17.0020 h1         1 Q6N       0.040367
     68 H8         -17.7720     5.4580   -18.4710 h1         1 Q6N       0.040367
     69 H7         -17.2470     6.0970   -16.8880 h1         1 Q6N       0.040367
     70 H5         -17.6700     7.8730   -18.3270 ha         1 Q6N       0.116000
     71 H4         -18.2660    10.1770   -18.9190 ha         1 Q6N       0.102000
     72 H3         -20.5440    11.0080   -18.5590 ha         1 Q6N       0.116000
     73 H          -24.1190    11.0060   -17.8030 h1         1 Q6N       0.040367
     74 H2         -22.5060    11.6520   -17.4340 h1         1 Q6N       0.040367
     75 H1         -22.8780    11.0480   -19.0730 h1         1 Q6N       0.040367
     76 H12        -20.9170     3.4250   -17.1660 ha         1 Q6N       0.151000
     77 H11        -19.5300     2.3970   -18.9390 ha         1 Q6N       0.125000
     78 H10        -21.0120     5.2840   -21.7700 ha         1 Q6N       0.116000
     79 H28        -23.1350     7.1450   -19.2740 hc         1 Q6N       0.080700
     80 H33        -24.4660     5.3640   -20.3440 hc         1 Q6N       0.033367
     81 H32        -24.6310     6.9190   -21.1860 hc         1 Q6N       0.033367
     82 H34        -23.6130     5.6370   -21.8790 hc         1 Q6N       0.033367
     83 H29        -21.0700     8.0700   -20.4410 hc         1 Q6N       0.033367
     84 H31        -21.7370     7.4460   -21.9630 hc         1 Q6N       0.033367
     85 H30        -22.6340     8.6600   -21.0360 hc         1 Q6N       0.033367
     86 H13        -18.5110     2.9380   -24.1450 h1         1 Q6N       0.039700
     87 H15        -17.5040     4.4050   -24.2330 h1         1 Q6N       0.039700
     88 H14        -16.9730     3.0240   -23.2340 h1         1 Q6N       0.039700
     89 H17        -16.9800     5.4180   -21.8490 h1         1 Q6N       0.047200
     90 H16        -18.4250     5.6240   -20.8730 h1         1 Q6N       0.047200
     91 H19        -19.5630     6.6350   -22.9450 hc         1 Q6N       0.055200
     92 H18        -17.9900     6.6060   -23.7400 hc         1 Q6N       0.055200
     93 H21        -17.0540     7.9460   -21.7980 h1         1 Q6N       0.032200
     94 H20        -18.6930     8.1110   -21.1650 h1         1 Q6N       0.032200
     95 H25        -20.1130     8.5930   -23.9080 h1         1 Q6N       0.030200
     96 H27        -20.3440     9.6130   -22.4660 h1         1 Q6N       0.030200
     97 H26        -19.7830    10.3300   -23.9920 h1         1 Q6N       0.030200
     98 H23        -16.6380    10.2560   -22.1150 h1         1 Q6N       0.030200
     99 H22        -17.7760    11.2750   -23.0200 h1         1 Q6N       0.030200
    100 H24        -18.2120    10.6810   -21.3990 h1         1 Q6N       0.030200
@<TRIPOS>BOND
     1     1     2 1   
     2     2     3 1   
     3     2     4 1   
     4     4     5 1   
     5     4    13 1   
     6     4    14 1   
     7     5     6 1   
     8     5     9 1   
     9     5    51 1   
    10     6     7 1   
    11     6    52 1   
    12     6    53 1   
    13     7     8 1   
    14     7    11 1   
    15     7    54 1   
    16     8    13 1   
    17     8    55 1   
    18     8    56 1   
    19     9    10 1   
    20     9    57 1   
    21     9    58 1   
    22    10    11 1   
    23    10    12 1   
    24    10    59 1   
    25    11    60 1   
    26    11    61 1   
    27    12    13 1   
    28    12    62 1   
    29    12    63 1   
    30    13    64 1   
    31    14    15 1   
    32    14    65 1   
    33    15    16 2   
    34    15    17 1   
    35    17    18 1   
    36    17    19 2   
    37    18    21 2   
    38    18    66 1   
    39    19    20 1   
    40    20    21 1   
    41    20    32 1   
    42    21    22 1   
    43    22    23 ar  
    44    22    29 ar  
    45    23    24 1   
    46    23    26 ar  
    47    24    25 1   
    48    25    67 1   
    49    25    68 1   
    50    25    69 1   
    51    26    27 ar  
    52    26    70 1   
    53    27    28 ar  
    54    27    71 1   
    55    28    29 ar  
    56    28    72 1   
    57    29    30 1   
    58    30    31 1   
    59    31    73 1   
    60    31    74 1   
    61    31    75 1   
    62    32    33 ar  
    63    32    37 ar  
    64    33    34 ar  
    65    33    76 1   
    66    34    35 ar  
    67    34    77 1   
    68    35    36 ar  
    69    35    41 1   
    70    36    37 ar  
    71    36    78 1   
    72    37    38 1   
    73    38    39 1   
    74    38    40 1   
    75    38    79 1   
    76    39    80 1   
    77    39    81 1   
    78    39    82 1   
    79    40    83 1   
    80    40    84 1   
    81    40    85 1   
    82    41    42 2   
    83    41    43 1   
    84    43    44 1   
    85    43    45 1   
    86    44    86 1   
    87    44    87 1   
    88    44    88 1   
    89    45    46 1   
    90    45    89 1   
    91    45    90 1   
    92    46    47 1   
    93    46    91 1   
    94    46    92 1   
    95    47    48 1   
    96    47    93 1   
    97    47    94 1   
    98    48    49 1   
    99    48    50 1   
   100    49    95 1   
   101    49    96 1   
   102    49    97 1   
   103    50    98 1   
   104    50    99 1   
   105    50   100 1   
@<TRIPOS>SUBSTRUCTURE
     1 Q6N         1 TEMP              0 ****  ****    0 ROOT
