@<TRIPOS>MOLECULE
Q6N
  100   105     1     0     0
SMALL
bcc


@<TRIPOS>ATOM
      1 O5         -26.6340     4.4340   -12.3890 o          1 Q6N      -0.819300
      2 C38        -26.2190     3.9450   -13.4540 c          1 Q6N       0.932600
      3 O4         -25.2040     3.2370   -13.6010 o          1 Q6N      -0.819300
      4 C28        -27.0060     4.2390   -14.7850 c6         1 Q6N       0.002400
      5 C36        -27.3840     2.9120   -15.4800 c6         1 Q6N      -0.048200
      6 C37        -28.0290     3.1700   -16.8480 c6         1 Q6N      -0.064400
      7 C31        -29.2950     4.0060   -16.6760 c6         1 Q6N      -0.058700
      8 C30        -28.9390     5.3260   -15.9860 c6         1 Q6N      -0.064400
      9 C35        -28.3830     2.1350   -14.6180 c6         1 Q6N      -0.064400
     10 C33        -29.6690     2.9450   -14.4500 c6         1 Q6N      -0.058700
     11 C32        -30.2900     3.2210   -15.8190 c6         1 Q6N      -0.065400
     12 C34        -29.3320     4.2730   -13.7780 c6         1 Q6N      -0.064400
     13 C29        -28.3080     5.0510   -14.6160 c6         1 Q6N      -0.048200
     14 N4         -26.0590     4.9120   -15.6800 ns         1 Q6N      -0.515900
     15 C27        -25.4570     6.0870   -15.4660 c          1 Q6N       0.591600
     16 O3         -25.7390     6.8860   -14.5810 o          1 Q6N      -0.607100
     17 C10        -24.3480     6.4000   -16.4030 cc         1 Q6N       0.278800
     18 C9         -23.5660     7.5650   -16.4020 cc         1 Q6N      -0.222300
     19 N          -23.9380     5.5520   -17.3310 nd         1 Q6N      -0.500800
     20 N1         -22.9170     6.1470   -17.9310 na         1 Q6N       0.167300
     21 C8         -22.6370     7.3690   -17.3950 cd         1 Q6N      -0.047300
     22 C7         -21.5050     8.1940   -17.8290 ca         1 Q6N      -0.091000
     23 C5         -20.1950     7.7350   -17.6350 ca         1 Q6N       0.197100
     24 O1         -20.0840     6.5500   -17.0190 os         1 Q6N      -0.293900
     25 C6         -18.8180     5.9210   -16.9680 c3         1 Q6N       0.125200
     26 C4         -19.1090     8.4970   -18.0590 ca         1 Q6N      -0.265500
     27 C3         -19.3460     9.7300   -18.6430 ca         1 Q6N      -0.054000
     28 C2         -20.6280    10.2240   -18.8190 ca         1 Q6N      -0.265500
     29 C1         -21.7130     9.4530   -18.4060 ca         1 Q6N       0.197100
     30 O          -22.9940     9.8300   -18.5430 os         1 Q6N      -0.293900
     31 C          -23.2810    11.0340   -19.2270 c3         1 Q6N       0.125200
     32 C11        -22.1690     5.4500   -18.9160 ca         1 Q6N       0.047800
     33 C16        -21.5030     4.2990   -18.5100 ca         1 Q6N      -0.104000
     34 C15        -20.7120     3.6010   -19.4000 ca         1 Q6N      -0.101000
     35 C14        -20.5550     4.0850   -20.6950 ca         1 Q6N      -0.149600
     36 C13        -21.2610     5.2070   -21.0990 ca         1 Q6N      -0.107000
     37 C12        -22.0970     5.9090   -20.2300 ca         1 Q6N      -0.064300
     38 C24        -22.9170     7.0630   -20.7590 c3         1 Q6N      -0.020400
     39 C26        -24.0870     6.5270   -21.5880 c3         1 Q6N      -0.084100
     40 C25        -22.0750     8.0460   -21.5700 c3         1 Q6N      -0.084100
     41 C17        -19.6860     3.3450   -21.6620 c          1 Q6N       0.680700
     42 O2         -19.9850     2.2100   -22.0070 o          1 Q6N      -0.589100
     43 N2         -18.5990     3.9920   -22.1250 n          1 Q6N      -0.475800
     44 C18        -17.7670     3.3200   -23.1060 c3         1 Q6N       0.085300
     45 C19        -18.0370     5.1830   -21.5060 c3         1 Q6N       0.107000
     46 C20        -18.1690     6.4400   -22.3550 c3         1 Q6N      -0.096400
     47 C21        -17.4970     7.6190   -21.6640 c3         1 Q6N       0.163800
     48 N3         -17.4010     8.8060   -22.4940 n3         1 Q6N      -0.714600
     49 C23        -18.6920     9.4050   -22.7610 c3         1 Q6N       0.149600
     50 C22        -16.5060     9.7780   -21.9060 c3         1 Q6N       0.149600
     51 H47        -26.4740     2.3180   -15.6060 hc         1 Q6N       0.075200
     52 H48        -28.2740     2.2090   -17.3120 hc         1 Q6N       0.033325
     53 H49        -27.3370     3.6650   -17.5360 hc         1 Q6N       0.033325
     54 H39        -29.7370     4.2120   -17.6570 hc         1 Q6N       0.023700
     55 H37        -28.2660     5.9100   -16.6200 hc         1 Q6N       0.033325
     56 H38        -29.8420     5.9320   -15.8530 hc         1 Q6N       0.033325
     57 H45        -28.6000     1.1750   -15.0980 hc         1 Q6N       0.033325
     58 H46        -27.9530     1.9000   -13.6400 hc         1 Q6N       0.033325
     59 H42        -30.3770     2.3850   -13.8290 hc         1 Q6N       0.023700
     60 H41        -31.2200     3.7870   -15.7020 hc         1 Q6N       0.019200
     61 H40        -30.5520     2.2810   -16.3180 hc         1 Q6N       0.019200
     62 H43        -30.2390     4.8800   -13.6830 hc         1 Q6N       0.033325
     63 H44        -28.9530     4.1080   -12.7700 hc         1 Q6N       0.033325
     64 H36        -28.0860     5.9940   -14.1160 hc         1 Q6N       0.075200
     65 H35        -25.6410     4.3390   -16.3970 hn         1 Q6N       0.311500
     66 H9         -23.6520     8.4230   -15.7570 ha         1 Q6N       0.178000
     67 H6         -18.9780     4.9460   -16.5150 h1         1 Q6N       0.040367
     68 H8         -18.3950     5.7810   -17.9660 h1         1 Q6N       0.040367
     69 H7         -18.1080     6.4810   -16.3550 h1         1 Q6N       0.040367
     70 H5         -18.0920     8.1550   -17.9270 ha         1 Q6N       0.134000
     71 H4         -18.5050    10.3250   -18.9730 ha         1 Q6N       0.120000
     72 H3         -20.7650    11.1930   -19.2790 ha         1 Q6N       0.134000
     73 H          -24.3650    11.1120   -19.2650 h1         1 Q6N       0.040367
     74 H2         -22.8850    11.9070   -18.7020 h1         1 Q6N       0.040367
     75 H1         -22.8910    11.0250   -20.2470 h1         1 Q6N       0.040367
     76 H12        -21.5970     3.9620   -17.4860 ha         1 Q6N       0.169000
     77 H11        -20.1890     2.7110   -19.0770 ha         1 Q6N       0.143000
     78 H10        -21.1740     5.5410   -22.1250 ha         1 Q6N       0.134000
     79 H28        -23.3390     7.6110   -19.9180 hc         1 Q6N       0.080700
     80 H33        -24.7200     5.8630   -21.0000 hc         1 Q6N       0.033367
     81 H32        -24.7060     7.3510   -21.9460 hc         1 Q6N       0.033367
     82 H34        -23.7320     5.9730   -22.4590 hc         1 Q6N       0.033367
     83 H29        -21.1750     8.3440   -21.0310 hc         1 Q6N       0.033367
     84 H31        -21.7670     7.6230   -22.5290 hc         1 Q6N       0.033367
     85 H30        -22.6500     8.9480   -21.7860 hc         1 Q6N       0.033367
     86 H13        -18.3730     2.8610   -23.8840 h1         1 Q6N       0.039700
     87 H15        -17.1120     4.0500   -23.5760 h1         1 Q6N       0.039700
     88 H14        -17.1450     2.5480   -22.6480 h1         1 Q6N       0.039700
     89 H17        -16.9800     4.9830   -21.3060 h1         1 Q6N       0.047200
     90 H16        -18.5010     5.3420   -20.5330 h1         1 Q6N       0.047200
     91 H19        -19.2270     6.6410   -22.5320 hc         1 Q6N       0.055200
     92 H18        -17.7040     6.2870   -23.3330 hc         1 Q6N       0.055200
     93 H21        -16.4790     7.3250   -21.3920 h1         1 Q6N       0.032200
     94 H20        -18.0200     7.8320   -20.7140 h1         1 Q6N       0.032200
     95 H25        -19.3530     8.7040   -23.2700 h1         1 Q6N       0.030200
     96 H27        -19.2050     9.7460   -21.8460 h1         1 Q6N       0.030200
     97 H26        -18.5700    10.2690   -23.4150 h1         1 Q6N       0.030200
     98 H23        -15.5160     9.3430   -21.7620 h1         1 Q6N       0.030200
     99 H22        -16.4010    10.6370   -22.5700 h1         1 Q6N       0.030200
    100 H24        -16.8510    10.1560   -20.9290 h1         1 Q6N       0.030200
@<TRIPOS>BOND
     1     1     2 1   
     2     2     3 1   
     3     2     4 1   
     4     4     5 1   
     5     4    13 1   
     6     4    14 1   
     7     5     6 1   
     8     5     9 1   
     9     5    51 1   
    10     6     7 1   
    11     6    52 1   
    12     6    53 1   
    13     7     8 1   
    14     7    11 1   
    15     7    54 1   
    16     8    13 1   
    17     8    55 1   
    18     8    56 1   
    19     9    10 1   
    20     9    57 1   
    21     9    58 1   
    22    10    11 1   
    23    10    12 1   
    24    10    59 1   
    25    11    60 1   
    26    11    61 1   
    27    12    13 1   
    28    12    62 1   
    29    12    63 1   
    30    13    64 1   
    31    14    15 1   
    32    14    65 1   
    33    15    16 2   
    34    15    17 1   
    35    17    18 1   
    36    17    19 2   
    37    18    21 2   
    38    18    66 1   
    39    19    20 1   
    40    20    21 1   
    41    20    32 1   
    42    21    22 1   
    43    22    23 ar  
    44    22    29 ar  
    45    23    24 1   
    46    23    26 ar  
    47    24    25 1   
    48    25    67 1   
    49    25    68 1   
    50    25    69 1   
    51    26    27 ar  
    52    26    70 1   
    53    27    28 ar  
    54    27    71 1   
    55    28    29 ar  
    56    28    72 1   
    57    29    30 1   
    58    30    31 1   
    59    31    73 1   
    60    31    74 1   
    61    31    75 1   
    62    32    33 ar  
    63    32    37 ar  
    64    33    34 ar  
    65    33    76 1   
    66    34    35 ar  
    67    34    77 1   
    68    35    36 ar  
    69    35    41 1   
    70    36    37 ar  
    71    36    78 1   
    72    37    38 1   
    73    38    39 1   
    74    38    40 1   
    75    38    79 1   
    76    39    80 1   
    77    39    81 1   
    78    39    82 1   
    79    40    83 1   
    80    40    84 1   
    81    40    85 1   
    82    41    42 2   
    83    41    43 1   
    84    43    44 1   
    85    43    45 1   
    86    44    86 1   
    87    44    87 1   
    88    44    88 1   
    89    45    46 1   
    90    45    89 1   
    91    45    90 1   
    92    46    47 1   
    93    46    91 1   
    94    46    92 1   
    95    47    48 1   
    96    47    93 1   
    97    47    94 1   
    98    48    49 1   
    99    48    50 1   
   100    49    95 1   
   101    49    96 1   
   102    49    97 1   
   103    50    98 1   
   104    50    99 1   
   105    50   100 1   
@<TRIPOS>SUBSTRUCTURE
     1 Q6N         1 TEMP              0 ****  ****    0 ROOT
