@<TRIPOS>MOLECULE
Q6P
   42    41     1     0     0
SMALL
No Charge or Current Charge


@<TRIPOS>ATOM
      1 C10         -1.3160     0.1630    -0.0960 c3         1 Q6P      -0.079400
      2 C11         -2.5800    -0.7200    -0.0570 c3         1 Q6P       0.160800
      3 C13         -5.0640    -0.6200    -0.0070 c3         1 Q6P       0.160800
      4 C14         -6.2530     0.3600     0.0080 c3         1 Q6P      -0.083400
      5 C15         -7.6110    -0.3670     0.0710 c3         1 Q6P       0.150800
      6 C01          7.5200    -0.7290     0.4930 c3         1 Q6P       0.140900
      7 C03          5.1610    -0.7450    -0.0720 c3         1 Q6P       0.096600
      8 C04          3.9010     0.1800    -0.1150 c3         1 Q6P       0.419000
      9 C07          2.5700    -0.6180    -0.1290 c3         1 Q6P      -0.143400
     10 C08          1.2620     0.2200    -0.1310 c3         1 Q6P      -0.067400
     11 C09         -0.0090    -0.6590    -0.0950 c3         1 Q6P      -0.076400
     12 N12         -3.7900     0.1200    -0.0560 n7         1 Q6P      -0.861400
     13 N16         -8.7380     0.5840     0.0760 n8         1 Q6P      -0.994200
     14 O02          6.2920     0.0140     0.4230 os         1 Q6P      -0.418000
     15 O05          3.9510     1.0420     0.9900 oh         1 Q6P      -0.684500
     16 O06          3.9670     1.0310    -1.2350 oh         1 Q6P      -0.684500
     17 H1          -1.3440     0.7950    -0.9930 hc         1 Q6P       0.048700
     18 H2          -1.3200     0.8340     0.7720 hc         1 Q6P       0.048700
     19 H3          -2.5790    -1.3870    -0.9310 h1         1 Q6P       0.026200
     20 H4          -2.5510    -1.3470     0.8440 h1         1 Q6P       0.026200
     21 H5          -5.1050    -1.2450     0.8950 h1         1 Q6P       0.025200
     22 H6          -5.1550    -1.2820    -0.8790 h1         1 Q6P       0.025200
     23 H7          -6.1580     1.0280     0.8730 hc         1 Q6P       0.053700
     24 H8          -6.2190     0.9850    -0.8930 hc         1 Q6P       0.053700
     25 H9          -7.7150    -1.0300    -0.7990 h1         1 Q6P       0.025200
     26 H10         -7.6610    -0.9780     0.9830 h1         1 Q6P       0.025200
     27 H11          8.3290    -0.0930     0.8750 h1         1 Q6P       0.028700
     28 H12          7.4170    -1.5910     1.1640 h1         1 Q6P       0.028700
     29 H13          7.8120    -1.0940    -0.5000 h1         1 Q6P       0.028700
     30 H14          4.9630    -1.5990     0.5890 h1         1 Q6P       0.019700
     31 H15          5.3640    -1.1390    -1.0770 h1         1 Q6P       0.019700
     32 H16          2.5680    -1.2780    -1.0060 hc         1 Q6P       0.043200
     33 H17          2.5560    -1.2780     0.7480 hc         1 Q6P       0.043200
     34 H18          1.2530     0.8900     0.7380 hc         1 Q6P       0.054700
     35 H19          1.2240     0.8520    -1.0260 hc         1 Q6P       0.054700
     36 H20          0.0160    -1.2920     0.8010 hc         1 Q6P       0.034200
     37 H21         -0.0070    -1.3320    -0.9620 hc         1 Q6P       0.034200
     38 H22         -3.7840     0.6870    -0.9120 hn         1 Q6P       0.407000
     39 H24         -9.6160     0.0610     0.1800 hn         1 Q6P       0.392000
     40 H25         -8.6940     1.1500     0.9330 hn         1 Q6P       0.392000
     41 H27          4.9210     1.0900     1.1580 ho         1 Q6P       0.512500
     42 H28          3.0780     1.4340    -1.2940 ho         1 Q6P       0.512500
@<TRIPOS>BOND
     1     1     2 1   
     2     1    11 1   
     3     1    17 1   
     4     1    18 1   
     5     2    12 1   
     6     2    19 1   
     7     2    20 1   
     8     3     4 1   
     9     3    12 1   
    10     3    21 1   
    11     3    22 1   
    12     4     5 1   
    13     4    23 1   
    14     4    24 1   
    15     5    13 1   
    16     5    25 1   
    17     5    26 1   
    18     6    14 1   
    19     6    27 1   
    20     6    28 1   
    21     6    29 1   
    22     7     8 1   
    23     7    14 1   
    24     7    30 1   
    25     7    31 1   
    26     8     9 1   
    27     8    15 1   
    28     8    16 1   
    29     9    10 1   
    30     9    32 1   
    31     9    33 1   
    32    10    11 1   
    33    10    34 1   
    34    10    35 1   
    35    11    36 1   
    36    11    37 1   
    37    12    38 1   
    38    13    39 1   
    39    13    40 1   
    40    15    41 1   
    41    16    42 1   
@<TRIPOS>SUBSTRUCTURE
     1 Q6P         1 TEMP              0 ****  ****    0 ROOT
