@<TRIPOS>MOLECULE
Q6P
   42    41     1     0     0
SMALL
bcc


@<TRIPOS>ATOM
      1 C10         -1.2690     0.3220    -0.0170 c3         1 Q6P      -0.079400
      2 C11         -2.5190    -0.5450    -0.0070 c3         1 Q6P       0.160800
      3 C13         -4.9360    -0.5440    -0.0010 c3         1 Q6P       0.160800
      4 C14         -6.1830     0.3260     0.0040 c3         1 Q6P      -0.083400
      5 C15         -7.4620    -0.4980     0.0030 c3         1 Q6P       0.150800
      6 C01          7.3430    -0.8580     0.0470 c3         1 Q6P       0.117700
      7 C03          5.0220    -0.6940     0.0270 c3         1 Q6P       0.073400
      8 C04          3.8480     0.2920     0.0090 c3         1 Q6P       0.372600
      9 C07          2.5350    -0.5020     0.0040 c3         1 Q6P      -0.143400
     10 C08          1.2730     0.3520    -0.0130 c3         1 Q6P      -0.067400
     11 C09          0.0110    -0.5040    -0.0090 c3         1 Q6P      -0.076400
     12 N12         -3.7280     0.2570     0.0060 n7         1 Q6P      -0.806200
     13 N16         -8.6350     0.3640     0.0210 n8         1 Q6P      -0.883800
     14 O02          6.2340     0.0030     0.0400 os         1 Q6P      -0.371600
     15 O05          3.9170     1.1740     1.0920 oh         1 Q6P      -0.562300
     16 O06          3.9370     1.1560    -1.0890 oh         1 Q6P      -0.562300
     17 H1          -1.2800     0.9670    -0.9030 hc         1 Q6P       0.048700
     18 H2          -1.2870     0.9870     0.8520 hc         1 Q6P       0.048700
     19 H3          -2.4840    -1.2400    -0.8630 h1         1 Q6P       0.026200
     20 H4          -2.5150    -1.1710     0.8910 h1         1 Q6P       0.026200
     21 H5          -4.9320    -1.1750     0.8940 h1         1 Q6P       0.025200
     22 H6          -4.9780    -1.2360    -0.8600 h1         1 Q6P       0.025200
     23 H7          -6.1630     0.9750     0.8850 hc         1 Q6P       0.053700
     24 H8          -6.1820     0.9830    -0.8730 hc         1 Q6P       0.053700
     25 H9          -7.4970    -1.1030    -0.9070 h1         1 Q6P       0.025200
     26 H10         -7.4280    -1.2080     0.8430 h1         1 Q6P       0.025200
     27 H11          8.2450    -0.2470     0.0580 h1         1 Q6P       0.028700
     28 H12          7.3550    -1.5070     0.9320 h1         1 Q6P       0.028700
     29 H13          7.3720    -1.5020    -0.8400 h1         1 Q6P       0.028700
     30 H14          4.9310    -1.3490     0.9080 h1         1 Q6P       0.019700
     31 H15          4.9520    -1.3530    -0.8530 h1         1 Q6P       0.019700
     32 H16          2.5310    -1.1720    -0.8640 hc         1 Q6P       0.043200
     33 H17          2.5170    -1.1570     0.8820 hc         1 Q6P       0.043200
     34 H18          1.2610     1.0160     0.8550 hc         1 Q6P       0.054700
     35 H19          1.2690     0.9960    -0.8970 hc         1 Q6P       0.054700
     36 H20          0.0170    -1.1550     0.8730 hc         1 Q6P       0.034200
     37 H21          0.0210    -1.1710    -0.8780 hc         1 Q6P       0.034200
     38 H22         -3.7290     0.8550    -0.8130 hn         1 Q6P       0.351800
     39 H24         -9.4720    -0.2040    -0.0150 hn         1 Q6P       0.336800
     40 H25         -8.6770     0.8470     0.9110 hn         1 Q6P       0.336800
     41 H27          3.8080     0.6750     1.9080 ho         1 Q6P       0.413500
     42 H28          3.8160     0.6470    -1.8970 ho         1 Q6P       0.413500
@<TRIPOS>BOND
     1     1     2 1   
     2     1    11 1   
     3     1    17 1   
     4     1    18 1   
     5     2    12 1   
     6     2    19 1   
     7     2    20 1   
     8     3     4 1   
     9     3    12 1   
    10     3    21 1   
    11     3    22 1   
    12     4     5 1   
    13     4    23 1   
    14     4    24 1   
    15     5    13 1   
    16     5    25 1   
    17     5    26 1   
    18     6    14 1   
    19     6    27 1   
    20     6    28 1   
    21     6    29 1   
    22     7     8 1   
    23     7    14 1   
    24     7    30 1   
    25     7    31 1   
    26     8     9 1   
    27     8    15 1   
    28     8    16 1   
    29     9    10 1   
    30     9    32 1   
    31     9    33 1   
    32    10    11 1   
    33    10    34 1   
    34    10    35 1   
    35    11    36 1   
    36    11    37 1   
    37    12    38 1   
    38    13    39 1   
    39    13    40 1   
    40    15    41 1   
    41    16    42 1   
@<TRIPOS>SUBSTRUCTURE
     1 Q6P         1 TEMP              0 ****  ****    0 ROOT
