@<TRIPOS>MOLECULE
Q6Q
   72    78     1     0     0
SMALL
No Charge or Current Charge


@<TRIPOS>ATOM
      1 C4           0.3900    10.9920    15.7590 c6         1 Q6Q      -0.064900
      2 C5           1.4270    10.6800    16.8760 c6         1 Q6Q      -0.059200
      3 C6           1.1920     9.2400    17.4080 c6         1 Q6Q      -0.064900
      4 C7           1.3230     8.2160    16.2320 c6         1 Q6Q      -0.050700
      5 C8           2.7700     8.3190    15.6550 c6         1 Q6Q      -0.064900
      6 C10          3.0220     9.7570    15.1230 c6         1 Q6Q      -0.059200
      7 O           -2.5040     8.7450    13.9560 o          1 Q6Q      -0.601100
      8 C1           0.2400     8.4840    15.1080 c6         1 Q6Q       0.005400
      9 C2           0.3970     7.3850    13.9690 c          1 Q6Q       0.726000
     10 C3           0.5360     9.9550    14.5980 c6         1 Q6Q      -0.050700
     11 C9           2.8640    10.7770    16.2880 c6         1 Q6Q      -0.065400
     12 O1           0.2810     6.2160    14.3210 o          1 Q6Q      -0.711500
     13 O2           0.1620     7.7030    12.8090 o          1 Q6Q      -0.711500
     14 C27         -6.8570     4.1660    20.5000 ca         1 Q6Q       0.130000
     15 C26         -6.5800     4.3390    19.1390 ca         1 Q6Q      -0.116000
     16 C25         -5.9090     5.4910    18.7010 ca         1 Q6Q      -0.056000
     17 C28         -6.4570     5.1370    21.4280 ca         1 Q6Q      -0.088000
     18 C29         -5.7840     6.3000    21.0140 ca         1 Q6Q       0.276000
     19 C24         -5.5180     6.4870    19.6300 ca         1 Q6Q      -0.080000
     20 N3          -5.4100     7.2030    21.9480 nb         1 Q6Q      -0.675000
     21 C30         -4.7590     8.3180    21.5520 ca         1 Q6Q       0.357900
     22 C31         -4.4630     8.5880    20.2130 ca         1 Q6Q      -0.156000
     23 C23         -4.8540     7.6730    19.2220 ca         1 Q6Q       0.097800
     24 N2          -4.5980     7.9770    17.8810 na         1 Q6Q       0.207000
     25 N1          -3.3020     8.0610    17.4230 nc         1 Q6Q      -0.505800
     26 C13         -5.5770     8.1450    16.9150 cc         1 Q6Q      -0.086000
     27 C14         -7.0420     8.1440    17.0120 ca         1 Q6Q      -0.103000
     28 C20         -7.7000     8.9830    17.9410 ca         1 Q6Q       0.195600
     29 O4          -6.9380     9.8400    18.7140 os         1 Q6Q      -0.324100
     30 C21         -7.5070    10.6760    19.7350 c3         1 Q6Q       0.147900
     31 C19         -9.1060     8.9510    18.0470 ca         1 Q6Q      -0.240500
     32 C18         -9.8580     8.0930    17.2330 ca         1 Q6Q      -0.029000
     33 C17         -9.2120     7.2620    16.3090 ca         1 Q6Q      -0.240500
     34 C15         -7.8060     7.2820    16.1930 ca         1 Q6Q       0.195600
     35 O3          -7.1410     6.4480    15.3110 os         1 Q6Q      -0.324100
     36 C16         -7.8280     5.5120    14.4630 c3         1 Q6Q       0.147900
     37 C22         -4.8650     8.3680    15.7750 cd         1 Q6Q      -0.137000
     38 C12         -3.4850     8.3100    16.1210 cd         1 Q6Q       0.221500
     39 N           -1.1080     8.4060    15.7500 ns         1 Q6Q      -0.448900
     40 C11          1.9820    10.0790    14.0170 c6         1 Q6Q      -0.064900
     41 H4           0.5490    12.0100    15.3760 hc         1 Q6Q       0.033325
     42 H3          -0.6280    10.9830    16.1700 hc         1 Q6Q       0.033325
     43 H5           1.3160    11.4020    17.6970 hc         1 Q6Q       0.023700
     44 H6           0.2090     9.1690    17.8930 hc         1 Q6Q       0.033325
     45 H7           1.9270     9.0070    18.1910 hc         1 Q6Q       0.033325
     46 H8           1.1800     7.2050    16.6390 hc         1 Q6Q       0.075700
     47 H10          2.9260     7.5840    14.8530 hc         1 Q6Q       0.033325
     48 H9           3.5040     8.0740    16.4350 hc         1 Q6Q       0.033325
     49 H13          4.0370     9.8260    14.7090 hc         1 Q6Q       0.023700
     50 H2          -0.1810    10.2150    13.8070 hc         1 Q6Q       0.075700
     51 H11          3.6090    10.5770    17.0710 hc         1 Q6Q       0.020200
     52 H12          3.0590    11.7970    15.9280 hc         1 Q6Q       0.020200
     53 H28         -6.6700     4.9880    22.4820 ha         1 Q6Q       0.140000
     54 H29         -4.4730     9.0190    22.3360 h4         1 Q6Q       0.018100
     55 H30         -3.9510     9.5080    19.9490 ha         1 Q6Q       0.149000
     56 H22         -6.7190    11.2520    20.2350 h1         1 Q6Q       0.041867
     57 H24         -8.2250    11.3850    19.3050 h1         1 Q6Q       0.041867
     58 H23         -8.0180    10.0700    20.4940 h1         1 Q6Q       0.041867
     59 H21         -9.6360     9.5870    18.7490 ha         1 Q6Q       0.118500
     60 H20        -10.9430     8.0730    17.3190 ha         1 Q6Q       0.106000
     61 H19         -9.8210     6.6050    15.6950 ha         1 Q6Q       0.118500
     62 H16         -7.1070     4.9560    13.8510 h1         1 Q6Q       0.041867
     63 H18         -8.3960     4.7880    15.0610 h1         1 Q6Q       0.041867
     64 H17         -8.5180     6.0320    13.7860 h1         1 Q6Q       0.041867
     65 H25         -5.2690     8.5590    14.7870 ha         1 Q6Q       0.163000
     66 H           -1.1410     8.2070    16.7430 hn         1 Q6Q       0.310500
     67 H14          2.1270     9.4100    13.1600 hc         1 Q6Q       0.033325
     68 H15          2.1470    11.0950    13.6340 hc         1 Q6Q       0.033325
     69 C           -2.3510     8.5050    15.1490 c          1 Q6Q       0.523600
     70 H27         -6.8830     3.5790    18.4220 ha         1 Q6Q       0.128000
     71 Cl          -7.6980     2.7210    21.0470 cl         1 Q6Q      -0.211000
     72 H26         -5.6940     5.5900    17.6400 ha         1 Q6Q       0.149000
@<TRIPOS>BOND
     1     1     2 1   
     2     1    10 1   
     3     1    41 1   
     4     1    42 1   
     5     2     3 1   
     6     2    11 1   
     7     2    43 1   
     8     3     4 1   
     9     3    44 1   
    10     3    45 1   
    11     4     5 1   
    12     4     8 1   
    13     4    46 1   
    14     5     6 1   
    15     5    47 1   
    16     5    48 1   
    17     6    11 1   
    18     6    40 1   
    19     6    49 1   
    20     7    69 2   
    21     8     9 1   
    22     8    10 1   
    23     8    39 1   
    24     9    12 1   
    25     9    13 1   
    26    10    40 1   
    27    10    50 1   
    28    11    51 1   
    29    11    52 1   
    30    14    15 ar  
    31    14    17 ar  
    32    14    71 1   
    33    15    16 ar  
    34    15    70 1   
    35    16    19 ar  
    36    16    72 1   
    37    17    18 ar  
    38    17    53 1   
    39    18    19 ar  
    40    18    20 ar  
    41    19    23 ar  
    42    20    21 ar  
    43    21    22 ar  
    44    21    54 1   
    45    22    23 ar  
    46    22    55 1   
    47    23    24 1   
    48    24    25 1   
    49    24    26 1   
    50    25    38 2   
    51    26    27 1   
    52    26    37 2   
    53    27    28 ar  
    54    27    34 ar  
    55    28    29 1   
    56    28    31 ar  
    57    29    30 1   
    58    30    56 1   
    59    30    57 1   
    60    30    58 1   
    61    31    32 ar  
    62    31    59 1   
    63    32    33 ar  
    64    32    60 1   
    65    33    34 ar  
    66    33    61 1   
    67    34    35 1   
    68    35    36 1   
    69    36    62 1   
    70    36    63 1   
    71    36    64 1   
    72    37    38 1   
    73    37    65 1   
    74    38    69 1   
    75    39    66 1   
    76    39    69 1   
    77    40    67 1   
    78    40    68 1   
@<TRIPOS>SUBSTRUCTURE
     1 Q6Q         1 TEMP              0 ****  ****    0 ROOT
