@<TRIPOS>MOLECULE
Q6Q
   72    78     1     0     0
SMALL
abcg2


@<TRIPOS>ATOM
      1 C4           0.2600    10.9760    15.7780 c6         1 Q6Q      -0.064900
      2 C5           1.2490    10.7140    16.9180 c6         1 Q6Q      -0.059200
      3 C6           1.0600     9.2880    17.4360 c6         1 Q6Q      -0.064900
      4 C7           1.2600     8.2860    16.2900 c6         1 Q6Q      -0.050700
      5 C8           2.6910     8.4400    15.7680 c6         1 Q6Q      -0.064900
      6 C10          2.9150     9.8670    15.2660 c6         1 Q6Q      -0.059200
      7 O           -2.4110     8.7980    13.9230 o          1 Q6Q      -0.601100
      8 C1           0.2500     8.5350    15.1450 c6         1 Q6Q       0.005400
      9 C2           0.3830     7.4060    14.0570 c          1 Q6Q       0.726000
     10 C3           0.4870     9.9750    14.6370 c6         1 Q6Q      -0.050700
     11 C9           2.6820    10.8610    16.4040 c6         1 Q6Q      -0.065400
     12 O1           0.2470     6.2470    14.4950 o          1 Q6Q      -0.711500
     13 O2           0.5940     7.7320    12.8760 o          1 Q6Q      -0.711500
     14 C27         -7.1290     4.3430    20.4160 ca         1 Q6Q       0.130000
     15 C26         -6.8490     4.4320    19.0370 ca         1 Q6Q      -0.116000
     16 C25         -6.0960     5.4700    18.5670 ca         1 Q6Q      -0.056000
     17 C28         -6.6400     5.2550    21.3040 ca         1 Q6Q      -0.088000
     18 C29         -5.8470     6.3290    20.8370 ca         1 Q6Q       0.276000
     19 C24         -5.5980     6.4580    19.4460 ca         1 Q6Q      -0.080000
     20 N3          -5.3450     7.1840    21.7550 nb         1 Q6Q      -0.675000
     21 C30         -4.5880     8.1620    21.3370 ca         1 Q6Q       0.357900
     22 C31         -4.3000     8.4090    19.9830 ca         1 Q6Q      -0.156000
     23 C23         -4.8260     7.5720    19.0420 ca         1 Q6Q       0.097800
     24 N2          -4.5910     7.8310    17.6750 na         1 Q6Q       0.207000
     25 N1          -3.3430     7.9640    17.2420 nc         1 Q6Q      -0.505800
     26 C13         -5.5150     8.0820    16.6980 cc         1 Q6Q      -0.086000
     27 C14         -6.9590     8.0860    16.9490 ca         1 Q6Q      -0.103000
     28 C20         -7.5050     8.9860    17.8720 ca         1 Q6Q       0.195600
     29 O4          -6.6330     9.8420    18.4240 os         1 Q6Q      -0.324100
     30 C21         -7.0410    10.6230    19.5310 c3         1 Q6Q       0.147900
     31 C19         -8.8670     8.9630    18.1590 ca         1 Q6Q      -0.240500
     32 C18         -9.6740     8.0570    17.4900 ca         1 Q6Q      -0.029000
     33 C17         -9.1680     7.1770    16.5460 ca         1 Q6Q      -0.240500
     34 C15         -7.8020     7.1950    16.2730 ca         1 Q6Q       0.195600
     35 O3          -7.2020     6.3730    15.4000 os         1 Q6Q      -0.324100
     36 C16         -7.9790     5.4010    14.7290 c3         1 Q6Q       0.147900
     37 C22         -4.7900     8.3590    15.5670 cd         1 Q6Q      -0.137000
     38 C12         -3.4450     8.2740    15.9640 cd         1 Q6Q       0.221500
     39 N           -1.0830     8.3960    15.7340 ns         1 Q6Q      -0.448900
     40 C11          1.9270    10.1530    14.1380 c6         1 Q6Q      -0.064900
     41 H4           0.3950    11.9930    15.3970 hc         1 Q6Q       0.033325
     42 H3          -0.7660    10.9190    16.1520 hc         1 Q6Q       0.033325
     43 H5           1.0720    11.4270    17.7290 hc         1 Q6Q       0.023700
     44 H6           0.0800     9.1840    17.9090 hc         1 Q6Q       0.033325
     45 H7           1.7930     9.0770    18.2210 hc         1 Q6Q       0.033325
     46 H8           1.1160     7.2680    16.6630 hc         1 Q6Q       0.075700
     47 H10          2.8940     7.7200    14.9700 hc         1 Q6Q       0.033325
     48 H9           3.3940     8.2080    16.5750 hc         1 Q6Q       0.033325
     49 H13          3.9400     9.9670    14.8940 hc         1 Q6Q       0.023700
     50 H2          -0.2020    10.1900    13.8180 hc         1 Q6Q       0.075700
     51 H11          3.3930    10.6830    17.2180 hc         1 Q6Q       0.020200
     52 H12          2.8550    11.8830    16.0490 hc         1 Q6Q       0.020200
     53 H28         -6.8330     5.1780    22.3660 ha         1 Q6Q       0.140000
     54 H29         -4.1860     8.8290    22.0910 h4         1 Q6Q       0.018100
     55 H30         -3.7030     9.2650    19.7010 ha         1 Q6Q       0.149000
     56 H22         -6.1570    11.1580    19.8690 h1         1 Q6Q       0.041867
     57 H24         -7.8090    11.3500    19.2580 h1         1 Q6Q       0.041867
     58 H23         -7.4130    10.0010    20.3490 h1         1 Q6Q       0.041867
     59 H21         -9.3060     9.6410    18.8770 ha         1 Q6Q       0.118500
     60 H20        -10.7350     8.0400    17.7060 ha         1 Q6Q       0.106000
     61 H19         -9.8360     6.4920    16.0450 ha         1 Q6Q       0.118500
     62 H16         -7.2910     4.8400    14.1010 h1         1 Q6Q       0.041867
     63 H18         -8.4620     4.7130    15.4270 h1         1 Q6Q       0.041867
     64 H17         -8.7430     5.8570    14.0950 h1         1 Q6Q       0.041867
     65 H25         -5.1800     8.6110    14.5950 ha         1 Q6Q       0.163000
     66 H           -1.1330     8.0870    16.6920 hn         1 Q6Q       0.310500
     67 H14          2.1200     9.4990    13.2900 hc         1 Q6Q       0.033325
     68 H15          2.0540    11.1820    13.7850 hc         1 Q6Q       0.033325
     69 C           -2.2540     8.5100    15.1040 c          1 Q6Q       0.523600
     70 H27         -7.2210     3.6770    18.3580 ha         1 Q6Q       0.128000
     71 CL          -8.1010     3.0280    20.9760 cl         1 Q6Q      -0.211000
     72 H26         -5.8650     5.5100    17.5120 ha         1 Q6Q       0.149000
@<TRIPOS>BOND
     1     1     2 1   
     2     1    10 1   
     3     1    41 1   
     4     1    42 1   
     5     2     3 1   
     6     2    11 1   
     7     2    43 1   
     8     3     4 1   
     9     3    44 1   
    10     3    45 1   
    11     4     5 1   
    12     4     8 1   
    13     4    46 1   
    14     5     6 1   
    15     5    47 1   
    16     5    48 1   
    17     6    11 1   
    18     6    40 1   
    19     6    49 1   
    20     7    69 2   
    21     8     9 1   
    22     8    10 1   
    23     8    39 1   
    24     9    12 1   
    25     9    13 1   
    26    10    40 1   
    27    10    50 1   
    28    11    51 1   
    29    11    52 1   
    30    14    15 ar  
    31    14    17 ar  
    32    14    71 1   
    33    15    16 ar  
    34    15    70 1   
    35    16    19 ar  
    36    16    72 1   
    37    17    18 ar  
    38    17    53 1   
    39    18    19 ar  
    40    18    20 ar  
    41    19    23 ar  
    42    20    21 ar  
    43    21    22 ar  
    44    21    54 1   
    45    22    23 ar  
    46    22    55 1   
    47    23    24 1   
    48    24    25 1   
    49    24    26 1   
    50    25    38 2   
    51    26    27 1   
    52    26    37 2   
    53    27    28 ar  
    54    27    34 ar  
    55    28    29 1   
    56    28    31 ar  
    57    29    30 1   
    58    30    56 1   
    59    30    57 1   
    60    30    58 1   
    61    31    32 ar  
    62    31    59 1   
    63    32    33 ar  
    64    32    60 1   
    65    33    34 ar  
    66    33    61 1   
    67    34    35 1   
    68    35    36 1   
    69    36    62 1   
    70    36    63 1   
    71    36    64 1   
    72    37    38 1   
    73    37    65 1   
    74    38    69 1   
    75    39    66 1   
    76    39    69 1   
    77    40    67 1   
    78    40    68 1   
@<TRIPOS>SUBSTRUCTURE
     1 Q6Q         1 TEMP              0 ****  ****    0 ROOT
