@<TRIPOS>MOLECULE
Q6R
   39    40     1     0     0
SMALL
No Charge or Current Charge


@<TRIPOS>ATOM
      1 C10          6.9860     6.4130   -33.4750 ca         1 Q6R      -0.110500
      2 C13         10.9930     1.5890   -33.0920 c3         1 Q6R      -0.055300
      3 C15          6.9150     1.5340   -30.5610 c          1 Q6R       0.724200
      4 C01          7.3280     5.2740   -34.2260 ca         1 Q6R      -0.090500
      5 C02         10.7120     1.5660   -31.5640 c6         1 Q6R       0.421500
      6 C03          8.6260     5.1350   -34.7590 ca         1 Q6R      -0.113300
      7 C04          9.5760     6.1540   -34.5290 ca         1 Q6R      -0.090500
      8 C05          9.8340     4.1770   -31.1710 c6         1 Q6R       0.180800
      9 C06          9.2340     7.2880   -33.7730 ca         1 Q6R      -0.110500
     10 C07          8.4860     3.5760   -30.8370 c2         1 Q6R      -0.114200
     11 C08          7.9390     7.4180   -33.2460 ca         1 Q6R      -0.120000
     12 C09          8.2680     2.2270   -30.8930 ce         1 Q6R       0.100800
     13 C11          8.9950     3.8930   -35.5670 c3         1 Q6R       0.115800
     14 C12         10.2550     3.1790   -34.9430 c          1 Q6R       0.603100
     15 C14         11.1670     0.1450   -33.6140 c          1 Q6R       0.725000
     16 N17          9.0810     4.2540   -37.0210 n8         1 Q6R      -0.982200
     17 N18          9.9770     2.3280   -33.8930 ns         1 Q6R      -0.422900
     18 N19          9.2980     1.2950   -31.2640 nu         1 Q6R      -0.797200
     19 O20         11.4020     3.3640   -35.3430 o          1 Q6R      -0.655100
     20 O22          5.9330     2.1810   -30.2220 o          1 Q6R      -0.710500
     21 O23          6.8680     0.3090   -30.6540 o          1 Q6R      -0.710500
     22 S24         11.2710     3.1180   -30.7420 ss         1 Q6R      -0.581000
     23 H1           5.9840     6.5110   -33.0660 ha         1 Q6R       0.103500
     24 H2          11.9640     2.0800   -33.2240 h1         1 Q6R       0.070700
     25 H3           6.5810     4.5010   -34.3910 ha         1 Q6R       0.119500
     26 H4          11.3470     0.7750   -31.1320 h2         1 Q6R       0.084700
     27 H5          10.5830     6.0670   -34.9330 ha         1 Q6R       0.119500
     28 H6           9.9630     5.1300   -30.6390 h1         1 Q6R       0.048200
     29 H7           9.8820     4.4020   -32.2450 h1         1 Q6R       0.048200
     30 H8           9.9730     8.0670   -33.5970 ha         1 Q6R       0.103500
     31 H10          7.6750     8.2960   -32.6610 ha         1 Q6R       0.094000
     32 H12          8.1720     3.1700   -35.4710 h1         1 Q6R       0.078700
     33 H14          8.2490     4.7980   -37.2760 hn         1 Q6R       0.390500
     34 H15          9.8540     4.9190   -37.1440 hn         1 Q6R       0.390500
     35 H17          9.0060     2.2320   -33.6200 hn         1 Q6R       0.333500
     36 H18          8.9890     0.3190   -31.3010 hn         1 Q6R       0.521000
     37 O1          12.3020    -0.2450   -33.8510 o          1 Q6R      -0.724500
     38 O21         10.1710    -0.5320   -33.8270 o          1 Q6R      -0.724500
     39 Cl16         7.3180     4.8020   -30.3800 cl         1 Q6R      -0.263000
@<TRIPOS>BOND
     1     1     4 ar  
     2     1    11 ar  
     3     1    23 1   
     4     2     5 1   
     5     2    15 1   
     6     2    17 1   
     7     2    24 1   
     8     3    12 1   
     9     3    20 1   
    10     3    21 1   
    11     4     6 ar  
    12     4    25 1   
    13     5    18 1   
    14     5    22 1   
    15     5    26 1   
    16     6     7 ar  
    17     6    13 1   
    18     7     9 ar  
    19     7    27 1   
    20     8    10 1   
    21     8    22 1   
    22     8    28 1   
    23     8    29 1   
    24     9    11 ar  
    25     9    30 1   
    26    10    12 2   
    27    10    39 1   
    28    11    31 1   
    29    12    18 1   
    30    13    14 1   
    31    13    16 1   
    32    13    32 1   
    33    14    17 1   
    34    14    19 2   
    35    15    37 1   
    36    15    38 1   
    37    16    33 1   
    38    16    34 1   
    39    17    35 1   
    40    18    36 1   
@<TRIPOS>SUBSTRUCTURE
     1 Q6R         1 TEMP              0 ****  ****    0 ROOT
