@<TRIPOS>MOLECULE
Q6R
   39    40     1     0     0
SMALL
abcg2


@<TRIPOS>ATOM
      1 C10          6.9810     6.2160   -33.4270 ca         1 Q6R      -0.110500
      2 C13         10.7520     1.5080   -33.2880 c3         1 Q6R      -0.055300
      3 C15          7.2500     1.3580   -30.1650 c          1 Q6R       0.724200
      4 C01          7.4410     5.1630   -34.2060 ca         1 Q6R      -0.090500
      5 C02         10.6820     1.6720   -31.7640 c6         1 Q6R       0.421500
      6 C03          8.6930     5.2170   -34.8090 ca         1 Q6R      -0.113300
      7 C04          9.4810     6.3510   -34.6200 ca         1 Q6R      -0.090500
      8 C05          9.7060     4.2460   -31.3450 c6         1 Q6R       0.180800
      9 C06          9.0250     7.4040   -33.8410 ca         1 Q6R      -0.110500
     10 C07          8.5260     3.4990   -30.8260 c2         1 Q6R      -0.114200
     11 C08          7.7730     7.3400   -33.2400 ca         1 Q6R      -0.120000
     12 C09          8.4240     2.1590   -30.7700 ce         1 Q6R       0.100800
     13 C11          9.1950     4.0490   -35.6390 c3         1 Q6R       0.115800
     14 C12         10.3050     3.3510   -34.8490 c          1 Q6R       0.603100
     15 C14         10.4290     0.0210   -33.6270 c          1 Q6R       0.725000
     16 N17          9.6970     4.3780   -36.9570 n8         1 Q6R      -0.982200
     17 N18          9.8800     2.4030   -34.0020 ns         1 Q6R      -0.422900
     18 N19          9.4010     1.3130   -31.2320 nu         1 Q6R      -0.797200
     19 O20         11.4730     3.6930   -34.9760 o          1 Q6R      -0.655100
     20 O22          6.1230     1.8630   -30.1920 o          1 Q6R      -0.710500
     21 O23          7.5770     0.2390   -29.7200 o          1 Q6R      -0.710500
     22 S24         11.2440     3.2950   -31.1610 ss         1 Q6R      -0.581000
     23 H1           6.0050     6.1560   -32.9620 ha         1 Q6R       0.103500
     24 H2          11.7790     1.7160   -33.5940 h1         1 Q6R       0.070700
     25 H3           6.8180     4.2860   -34.3430 ha         1 Q6R       0.119500
     26 H4          11.4210     0.9800   -31.3560 h2         1 Q6R       0.084700
     27 H5          10.4620     6.4150   -35.0750 ha         1 Q6R       0.119500
     28 H6           9.8700     5.1530   -30.7590 h1         1 Q6R       0.048200
     29 H7           9.5720     4.5570   -32.3810 h1         1 Q6R       0.048200
     30 H8           9.6500     8.2760   -33.6990 ha         1 Q6R       0.103500
     31 H10          7.4190     8.1620   -32.6320 ha         1 Q6R       0.094000
     32 H12          8.3620     3.3500   -35.7620 h1         1 Q6R       0.078700
     33 H14          9.0210     4.9560   -37.4400 hn         1 Q6R       0.390500
     34 H15         10.5460     4.9230   -36.8830 hn         1 Q6R       0.390500
     35 H17          8.9300     2.0770   -34.1000 hn         1 Q6R       0.333500
     36 H18          9.3320     0.4040   -30.7960 hn         1 Q6R       0.521000
     37 O1          11.2270    -0.8070   -33.1520 o          1 Q6R      -0.724500
     38 O21          9.4150    -0.1990   -34.3110 o          1 Q6R      -0.724500
     39 CL16         7.2700     4.5660   -30.2440 cl         1 Q6R      -0.263000
@<TRIPOS>BOND
     1     1     4 ar  
     2     1    11 ar  
     3     1    23 1   
     4     2     5 1   
     5     2    15 1   
     6     2    17 1   
     7     2    24 1   
     8     3    12 1   
     9     3    20 1   
    10     3    21 1   
    11     4     6 ar  
    12     4    25 1   
    13     5    18 1   
    14     5    22 1   
    15     5    26 1   
    16     6     7 ar  
    17     6    13 1   
    18     7     9 ar  
    19     7    27 1   
    20     8    10 1   
    21     8    22 1   
    22     8    28 1   
    23     8    29 1   
    24     9    11 ar  
    25     9    30 1   
    26    10    12 2   
    27    10    39 1   
    28    11    31 1   
    29    12    18 1   
    30    13    14 1   
    31    13    16 1   
    32    13    32 1   
    33    14    17 1   
    34    14    19 2   
    35    15    37 1   
    36    15    38 1   
    37    16    33 1   
    38    16    34 1   
    39    17    35 1   
    40    18    36 1   
@<TRIPOS>SUBSTRUCTURE
     1 Q6R         1 TEMP              0 ****  ****    0 ROOT
