@<TRIPOS>MOLECULE
Q6S
   65    68     1     0     0
SMALL
abcg2


@<TRIPOS>ATOM
      1 N1          -1.3930    -1.9880    -0.6150 ns         1 Q6S      -0.505900
      2 N3           6.2590    -1.7000    -0.6860 na         1 Q6S      -0.663400
      3 C4          -4.9810    -2.3460    -1.4280 ca         1 Q6S      -0.178500
      4 C5          -3.8600    -1.9730    -0.6980 ca         1 Q6S      -0.036300
      5 C6          -3.9340    -0.9270     0.2090 ca         1 Q6S      -0.178500
      6 C7          -6.3050     1.5000     1.4980 c3         1 Q6S       0.149900
      7 C8          -8.4730    -1.4510    -1.8500 c3         1 Q6S       0.149900
      8 C10         -0.5810    -2.2020     0.4360 c          1 Q6S       0.618700
      9 C13          2.7320    -0.7200     1.4390 ca         1 Q6S      -0.125300
     10 C15          1.3850     1.0510     0.4760 cp         1 Q6S      -0.051000
     11 C17          4.0370    -1.1660     2.0470 c3         1 Q6S       0.298100
     12 C20          1.8510     4.4780    -1.0480 ca         1 Q6S      -0.159000
     13 C21          0.7770     5.1370    -0.4830 ca         1 Q6S       0.176000
     14 C22         -0.1070     4.5070     0.3670 ca         1 Q6S      -0.156000
     15 C26          6.6930    -0.4520    -0.2630 cc         1 Q6S      -0.085000
     16 C28          6.7400    -2.4360    -1.8240 c3         1 Q6S       0.226100
     17 C1          -5.1400    -0.2510     0.3880 ca         1 Q6S       0.179100
     18 C11          0.5150    -1.2020     0.6190 ca         1 Q6S      -0.157600
     19 C12          1.7020    -1.6200     1.2140 ca         1 Q6S      -0.017000
     20 C14          2.5610     0.6110     1.0710 ca         1 Q6S      -0.066000
     21 C16          0.3610     0.1320     0.2570 ca         1 Q6S      -0.072000
     22 C18          1.2000     2.4760     0.1170 cp         1 Q6S      -0.057000
     23 C19          2.0800     3.1360    -0.7560 ca         1 Q6S      -0.032300
     24 C2          -6.2750    -0.6170    -0.3340 ca         1 Q6S      -0.286000
     25 C23          0.1190     3.1700     0.6550 ca         1 Q6S      -0.071000
     26 C25          5.2520    -2.1490     0.1330 cc         1 Q6S       0.803100
     27 C27          5.9750    -0.1190     0.8200 cd         1 Q6S      -0.088000
     28 C3          -6.1850    -1.6710    -1.2430 ca         1 Q6S       0.179100
     29 C9          -2.5810    -2.7570    -0.8850 c3         1 Q6S       0.141300
     30 N2           5.1060    -1.1680     1.0810 na         1 Q6S      -0.613400
     31 O1          -5.1240     0.7530     1.2840 os         1 Q6S      -0.342100
     32 O2          -7.2220    -2.0930    -1.9910 os         1 Q6S      -0.342100
     33 O3          -0.7120    -3.1410     1.2090 o          1 Q6S      -0.593100
     34 H1          -1.1650    -1.2580    -1.2710 hn         1 Q6S       0.318500
     35 H2          -4.9270    -3.1560    -2.1460 ha         1 Q6S       0.130500
     36 H3          -3.0690    -0.6190     0.7830 ha         1 Q6S       0.130500
     37 H4          -6.0590     2.2590     2.2360 h1         1 Q6S       0.040200
     38 H5          -6.6470     1.9960     0.5860 h1         1 Q6S       0.040200
     39 H6          -7.1170     0.8800     1.8880 h1         1 Q6S       0.040200
     40 H7          -8.8700    -1.5490    -0.8360 h1         1 Q6S       0.040200
     41 H8          -8.4200    -0.3900    -2.1070 h1         1 Q6S       0.040200
     42 H9          -9.1530    -1.9430    -2.5410 h1         1 Q6S       0.040200
     43 H10          4.3260    -0.5020     2.8630 h1         1 Q6S       0.070200
     44 H11          3.9380    -2.1690     2.4640 h1         1 Q6S       0.070200
     45 H12          2.5080     5.0090    -1.7260 ha         1 Q6S       0.130000
     46 H13         -0.9450     5.0390     0.7970 ha         1 Q6S       0.134000
     47 H14          4.0910     2.3440    -0.7280 hc         1 Q6S       0.047700
     48 H15          2.9810     1.4310    -1.7280 hc         1 Q6S       0.047700
     49 H16          3.5830     2.9940    -2.2780 hc         1 Q6S       0.047700
     50 H17          7.4850     0.0770    -0.7640 h4         1 Q6S       0.222000
     51 H18          7.5330    -1.8700    -2.3030 h1         1 Q6S       0.043700
     52 H19          7.1430    -3.4050    -1.5270 h1         1 Q6S       0.043700
     53 H20          5.9460    -2.6000    -2.5550 h1         1 Q6S       0.043700
     54 H21          1.8320    -2.6580     1.4930 ha         1 Q6S       0.150000
     55 H22          3.3530     1.3250     1.2640 ha         1 Q6S       0.113000
     56 H23         -0.5640     0.4810    -0.1870 ha         1 Q6S       0.117000
     57 H24         -7.2090    -0.0910    -0.1950 ha         1 Q6S       0.120000
     58 H25         -0.5570     2.6590     1.3300 ha         1 Q6S       0.123000
     59 H26          6.0210     0.7550     1.4470 h4         1 Q6S       0.225000
     60 H27         -2.5370    -3.1470    -1.9040 h1         1 Q6S       0.070200
     61 H28         -2.5830    -3.6200    -0.2200 h1         1 Q6S       0.070200
     62 H29          4.8470    -3.8250    -0.6690 hn         1 Q6S       0.384400
     63 F1           0.5860     6.4330    -0.7800 f          1 Q6S      -0.180000
     64 C24          3.2410     2.4380    -1.4060 c3         1 Q6S      -0.051800
     65 N4           4.5540    -3.2300     0.0960 n2         1 Q6S      -0.908100
@<TRIPOS>BOND
     1     1     8 1   
     2     1    29 1   
     3     1    34 1   
     4     2    15 1   
     5     2    16 1   
     6     2    26 1   
     7     3     4 ar  
     8     3    28 ar  
     9     3    35 1   
    10     4     5 ar  
    11     4    29 1   
    12     5    17 ar  
    13     5    36 1   
    14     6    31 1   
    15     6    37 1   
    16     6    38 1   
    17     6    39 1   
    18     7    32 1   
    19     7    40 1   
    20     7    41 1   
    21     7    42 1   
    22     8    18 1   
    23     8    33 2   
    24     9    11 1   
    25     9    19 ar  
    26     9    20 ar  
    27    10    20 ar  
    28    10    21 ar  
    29    10    22 1   
    30    11    30 1   
    31    11    43 1   
    32    11    44 1   
    33    12    13 ar  
    34    12    23 ar  
    35    12    45 1   
    36    13    14 ar  
    37    13    63 1   
    38    14    25 ar  
    39    14    46 1   
    40    15    27 2   
    41    15    50 1   
    42    16    51 1   
    43    16    52 1   
    44    16    53 1   
    45    17    24 ar  
    46    17    31 1   
    47    18    19 ar  
    48    18    21 ar  
    49    19    54 1   
    50    20    55 1   
    51    21    56 1   
    52    22    23 ar  
    53    22    25 ar  
    54    23    64 1   
    55    24    28 ar  
    56    24    57 1   
    57    25    58 1   
    58    26    30 1   
    59    26    65 2   
    60    27    30 1   
    61    27    59 1   
    62    28    32 1   
    63    29    60 1   
    64    29    61 1   
    65    47    64 1   
    66    48    64 1   
    67    49    64 1   
    68    62    65 1   
@<TRIPOS>SUBSTRUCTURE
     1 Q6S         1 TEMP              0 ****  ****    0 ROOT
