@<TRIPOS>MOLECULE
Q6S
   65    68     1     0     0
SMALL
No Charge or Current Charge


@<TRIPOS>ATOM
      1 N1          -1.9260    -1.9970     0.9210 ns         1 Q6S      -0.505900
      2 N3           6.7600    -0.8890    -0.9210 na         1 Q6S      -0.663400
      3 C4          -4.7820    -1.9440    -0.7530 ca         1 Q6S      -0.178500
      4 C5          -4.3620    -1.9070     0.5890 ca         1 Q6S      -0.036300
      5 C6          -5.0420    -1.0750     1.4960 ca         1 Q6S      -0.178500
      6 C7          -7.8730     1.3390     1.7020 c3         1 Q6S       0.149900
      7 C8          -7.3230    -0.5060    -3.0680 c3         1 Q6S       0.149900
      8 C10         -0.6890    -2.4900     1.2670 c          1 Q6S       0.618700
      9 C13          2.9180    -1.1980     1.2330 ca         1 Q6S      -0.125300
     10 C15          1.4710     0.5860     0.3560 cp         1 Q6S      -0.051000
     11 C17          4.3050    -1.7290     1.6060 c3         1 Q6S       0.298100
     12 C20          1.8400     3.7440    -1.7960 ca         1 Q6S      -0.159000
     13 C21          0.9200     4.5940    -1.1670 ca         1 Q6S       0.176000
     14 C22          0.1810     4.1460    -0.0660 ca         1 Q6S      -0.156000
     15 C26          7.0870     0.0520     0.0700 cc         1 Q6S      -0.085000
     16 C28          7.4270    -1.0280    -2.2310 c3         1 Q6S       0.226100
     17 C1          -6.1290    -0.2940     1.0770 ca         1 Q6S       0.179100
     18 C11          0.4950    -1.5670     1.0640 ca         1 Q6S      -0.157600
     19 C12          1.7890    -2.0230     1.4020 ca         1 Q6S      -0.017000
     20 C14          2.7460     0.1040     0.7250 ca         1 Q6S      -0.066000
     21 C16          0.3520    -0.2590     0.5410 ca         1 Q6S      -0.072000
     22 C18          1.3000     1.9630    -0.1990 cp         1 Q6S      -0.057000
     23 C19          2.0370     2.4280    -1.3290 ca         1 Q6S      -0.032300
     24 C2          -6.5480    -0.3400    -0.2690 ca         1 Q6S      -0.286000
     25 C23          0.3690     2.8400     0.4120 ca         1 Q6S      -0.071000
     26 C25          5.7210    -1.6470    -0.4610 cc         1 Q6S       0.803100
     27 C27          6.2300    -0.1500     1.1360 cd         1 Q6S      -0.088000
     28 C3          -5.8690    -1.1690    -1.1860 ca         1 Q6S       0.179100
     29 C9          -3.1770    -2.7420     1.0490 c3         1 Q6S       0.141300
     30 N2           5.4020    -1.1960     0.7710 na         1 Q6S      -0.613400
     31 O1          -6.7500     0.4980     2.0210 os         1 Q6S      -0.342100
     32 O2          -6.2270    -1.2560    -2.5150 os         1 Q6S      -0.342100
     33 O3          -0.5660    -3.6210     1.7170 o          1 Q6S      -0.593100
     34 H1          -1.9640    -1.0560     0.5550 hn         1 Q6S       0.318500
     35 H2          -4.2630    -2.5780    -1.4670 ha         1 Q6S       0.130500
     36 H3          -4.7240    -1.0300     2.5350 ha         1 Q6S       0.130500
     37 H4          -8.2080     1.8800     2.5960 h1         1 Q6S       0.040200
     38 H5          -7.6010     2.0800     0.9390 h1         1 Q6S       0.040200
     39 H6          -8.7150     0.7420     1.3310 h1         1 Q6S       0.040200
     40 H7          -8.2660    -0.7670    -2.5700 h1         1 Q6S       0.040200
     41 H8          -7.1520     0.5730    -2.9570 h1         1 Q6S       0.040200
     42 H9          -7.4320    -0.7250    -4.1370 h1         1 Q6S       0.040200
     43 H10          4.5050    -1.4780     2.6570 h1         1 Q6S       0.070200
     44 H11          4.3080    -2.8250     1.5340 h1         1 Q6S       0.070200
     45 H12          2.3970     4.1100    -2.6550 ha         1 Q6S       0.130000
     46 H13         -0.5330     4.8100     0.4160 ha         1 Q6S       0.134000
     47 H14          4.0130     1.5580    -1.6100 hc         1 Q6S       0.047700
     48 H15          2.6840     0.4980    -2.1200 hc         1 Q6S       0.047700
     49 H16          3.1500     1.8710    -3.1210 hc         1 Q6S       0.047700
     50 H17          7.8870     0.7840    -0.0420 h4         1 Q6S       0.222000
     51 H18          8.2200    -0.2760    -2.3330 h1         1 Q6S       0.043700
     52 H19          7.8720    -2.0280    -2.3200 h1         1 Q6S       0.043700
     53 H20          6.6970    -0.8850    -3.0390 h1         1 Q6S       0.043700
     54 H21          1.9210    -3.0270     1.8010 ha         1 Q6S       0.150000
     55 H22          3.6050     0.7600     0.6150 ha         1 Q6S       0.113000
     56 H23         -0.6240     0.1240     0.2580 ha         1 Q6S       0.117000
     57 H24         -7.3880     0.2610    -0.5980 ha         1 Q6S       0.120000
     58 H25         -0.2020     2.5020     1.2740 ha         1 Q6S       0.123000
     59 H26          6.1650     0.3780     2.0880 h4         1 Q6S       0.225000
     60 H27         -3.1120    -3.6590     0.4470 h1         1 Q6S       0.070200
     61 H28         -3.3140    -3.0360     2.0980 h1         1 Q6S       0.070200
     62 H29          5.6630    -2.7030    -1.9810 hn         1 Q6S       0.384400
     63 F1           0.7420     5.8510    -1.6290 f          1 Q6S      -0.180000
     64 C24          3.0240     1.5400    -2.0830 c3         1 Q6S      -0.051800
     65 N4           5.1780    -2.6220    -1.0830 n2         1 Q6S      -0.908100
@<TRIPOS>BOND
     1     1     8 1   
     2     1    29 1   
     3     1    34 1   
     4     2    15 1   
     5     2    16 1   
     6     2    26 1   
     7     3     4 ar  
     8     3    28 ar  
     9     3    35 1   
    10     4     5 ar  
    11     4    29 1   
    12     5    17 ar  
    13     5    36 1   
    14     6    31 1   
    15     6    37 1   
    16     6    38 1   
    17     6    39 1   
    18     7    32 1   
    19     7    40 1   
    20     7    41 1   
    21     7    42 1   
    22     8    18 1   
    23     8    33 2   
    24     9    11 1   
    25     9    19 ar  
    26     9    20 ar  
    27    10    20 ar  
    28    10    21 ar  
    29    10    22 1   
    30    11    30 1   
    31    11    43 1   
    32    11    44 1   
    33    12    13 ar  
    34    12    23 ar  
    35    12    45 1   
    36    13    14 ar  
    37    13    63 1   
    38    14    25 ar  
    39    14    46 1   
    40    15    27 2   
    41    15    50 1   
    42    16    51 1   
    43    16    52 1   
    44    16    53 1   
    45    17    24 ar  
    46    17    31 1   
    47    18    19 ar  
    48    18    21 ar  
    49    19    54 1   
    50    20    55 1   
    51    21    56 1   
    52    22    23 ar  
    53    22    25 ar  
    54    23    64 1   
    55    24    28 ar  
    56    24    57 1   
    57    25    58 1   
    58    26    30 1   
    59    26    65 2   
    60    27    30 1   
    61    27    59 1   
    62    28    32 1   
    63    29    60 1   
    64    29    61 1   
    65    47    64 1   
    66    48    64 1   
    67    49    64 1   
    68    62    65 1   
@<TRIPOS>SUBSTRUCTURE
     1 Q6S         1 TEMP              0 ****  ****    0 ROOT
