@<TRIPOS>MOLECULE
Q6T
   17    18     1     0     0
SMALL
No Charge or Current Charge


@<TRIPOS>ATOM
      1 OAA          3.0760     0.0420    -0.5610 o          1 Q6T      -0.711000
      2 C10          2.0860     0.5340    -0.0360 c          1 Q6T       0.717600
      3 OAB          2.0990     1.6230     0.5200 o          1 Q6T      -0.711000
      4 CAD          0.8170    -0.2860    -0.0130 ca         1 Q6T      -0.114600
      5 CAK         -0.4600     0.3000    -0.1330 ca         1 Q6T       0.079100
      6 CAL         -1.6050    -0.4540    -0.1200 ca         1 Q6T       0.008100
      7 OAH         -2.7250     0.2950    -0.2820 os         1 Q6T      -0.373100
      8 CAF         -2.1970     1.6670    -0.2640 c5         1 Q6T       0.366600
      9 OAG         -0.7300     1.6200    -0.3240 os         1 Q6T      -0.301100
     10 CAE         -1.5740    -1.8460     0.0150 ca         1 Q6T      -0.128000
     11 CAJ         -0.3180    -2.4690     0.1410 ca         1 Q6T      -0.153000
     12 CAC          0.8680    -1.6970     0.1250 ca         1 Q6T      -0.088000
     13 HAJ         -0.2580    -3.5500     0.2470 ha         1 Q6T       0.091000
     14 HAE         -2.4930    -2.4270     0.0170 ha         1 Q6T       0.103000
     15 HAC          1.8300    -2.1970     0.2210 ha         1 Q6T       0.134000
     16 HAF1        -2.5860     2.2290    -1.1210 h2         1 Q6T       0.039700
     17 HAF2        -2.4960     2.1490     0.6740 h2         1 Q6T       0.039700
@<TRIPOS>BOND
     1     1     2 1   
     2     2     3 1   
     3     2     4 1   
     4     4     5 ar  
     5     4    12 ar  
     6     5     6 ar  
     7     5     9 1   
     8     6     7 1   
     9     6    10 ar  
    10     7     8 1   
    11     8     9 1   
    12     8    16 1   
    13     8    17 1   
    14    10    11 ar  
    15    10    14 1   
    16    11    12 ar  
    17    11    13 1   
    18    12    15 1   
@<TRIPOS>SUBSTRUCTURE
     1 Q6T         1 TEMP              0 ****  ****    0 ROOT
