@<TRIPOS>MOLECULE
Q6T
   17    18     1     0     0
SMALL
abcg2


@<TRIPOS>ATOM
      1 OAA          3.1650    -0.1310    -0.0740 o          1 Q6T      -0.711000
      2 C10          2.1080     0.5260    -0.0120 c          1 Q6T       0.717600
      3 OAB          1.9970     1.7640     0.0490 o          1 Q6T      -0.711000
      4 CAD          0.8170    -0.2760    -0.0080 ca         1 Q6T      -0.114600
      5 CAK         -0.4410     0.2980    -0.0110 ca         1 Q6T       0.079100
      6 CAL         -1.6010    -0.4700     0.0030 ca         1 Q6T       0.008100
      7 OAH         -2.6870     0.3450     0.0210 os         1 Q6T      -0.373100
      8 CAF         -2.1920     1.6530    -0.2160 c5         1 Q6T       0.366600
      9 OAG         -0.7910     1.6090    -0.0060 os         1 Q6T      -0.301100
     10 CAE         -1.5790    -1.8410     0.0220 ca         1 Q6T      -0.128000
     11 CAJ         -0.3150    -2.4440     0.0230 ca         1 Q6T      -0.153000
     12 CAC          0.8380    -1.6820     0.0060 ca         1 Q6T      -0.088000
     13 HAJ         -0.2450    -3.5230     0.0360 ha         1 Q6T       0.091000
     14 HAE         -2.4890    -2.4260     0.0370 ha         1 Q6T       0.103000
     15 HAC          1.8020    -2.1720     0.0030 ha         1 Q6T       0.134000
     16 HAF1        -2.4050     1.9500    -1.2490 h2         1 Q6T       0.039700
     17 HAF2        -2.6490     2.3540     0.4820 h2         1 Q6T       0.039700
@<TRIPOS>BOND
     1     1     2 1   
     2     2     3 1   
     3     2     4 1   
     4     4     5 ar  
     5     4    12 ar  
     6     5     6 ar  
     7     5     9 1   
     8     6     7 1   
     9     6    10 ar  
    10     7     8 1   
    11     8     9 1   
    12     8    16 1   
    13     8    17 1   
    14    10    11 ar  
    15    10    14 1   
    16    11    12 ar  
    17    11    13 1   
    18    12    15 1   
@<TRIPOS>SUBSTRUCTURE
     1 Q6T         1 TEMP              0 ****  ****    0 ROOT
