@<TRIPOS>MOLECULE
Q6U
   26    26     1     0     0
SMALL
No Charge or Current Charge


@<TRIPOS>ATOM
      1 N1           8.0370    -3.3350    24.4540 n3         1 Q6U      -0.722600
      2 C4           8.5840    -3.8290    25.7470 c3         1 Q6U       0.252900
      3 C5           9.5540    -4.9330    25.6200 c1         1 Q6U      -0.191100
      4 C6          10.3480    -5.8380    25.4870 c1         1 Q6U      -0.229000
      5 C7           7.2150    -4.3440    23.7160 c6         1 Q6U       0.144300
      6 C8           6.5670    -3.7350    22.4410 c6         1 Q6U       0.098000
      7 O            7.3500    -4.6350    19.8580 o          1 Q6U      -0.613100
      8 C1           7.9260    -3.6460    20.2940 c          1 Q6U       0.602100
      9 C            8.9880    -2.9470    19.4430 c3         1 Q6U      -0.173100
     10 N            7.5910    -3.1080    21.5580 n          1 Q6U      -0.417800
     11 C3           9.0590    -2.7050    23.5610 c6         1 Q6U       0.144300
     12 C2           8.4140    -2.0960    22.2850 c6         1 Q6U       0.098000
     13 H2           9.0750    -3.0050    26.2830 h1         1 Q6U       0.069200
     14 H3           7.7620    -4.1710    26.3920 h1         1 Q6U       0.069200
     15 H4          11.0480    -6.6390    25.3550 ha         1 Q6U       0.255000
     16 H5           6.4170    -4.7360    24.3630 h1         1 Q6U       0.045950
     17 H6           7.8360    -5.1990    23.4130 h1         1 Q6U       0.045950
     18 H7           5.8390    -2.9680    22.7410 h1         1 Q6U       0.062200
     19 H8           6.0080    -4.5170    21.9090 h1         1 Q6U       0.062200
     20 H9           9.0760    -3.3830    18.4410 hc         1 Q6U       0.060367
     21 H10          8.7740    -1.8740    19.3990 hc         1 Q6U       0.060367
     22 H11          9.9490    -2.9860    19.9690 hc         1 Q6U       0.060367
     23 H12          9.8080    -3.4490    23.2490 h1         1 Q6U       0.045950
     24 H13          9.5980    -1.9100    24.0970 h1         1 Q6U       0.045950
     25 H14          9.2040    -1.6730    21.6530 h1         1 Q6U       0.062200
     26 H15          7.7630    -1.2610    22.5810 h1         1 Q6U       0.062200
@<TRIPOS>BOND
     1     1     2 1   
     2     1     5 1   
     3     1    11 1   
     4     2     3 1   
     5     2    13 1   
     6     2    14 1   
     7     3     4 3   
     8     4    15 1   
     9     5     6 1   
    10     5    16 1   
    11     5    17 1   
    12     6    10 1   
    13     6    18 1   
    14     6    19 1   
    15     7     8 2   
    16     8     9 1   
    17     8    10 1   
    18     9    20 1   
    19     9    21 1   
    20     9    22 1   
    21    10    12 1   
    22    11    12 1   
    23    11    23 1   
    24    11    24 1   
    25    12    25 1   
    26    12    26 1   
@<TRIPOS>SUBSTRUCTURE
     1 Q6U         1 TEMP              0 ****  ****    0 ROOT
