@<TRIPOS>MOLECULE
Q6U
   26    26     1     0     0
SMALL
abcg2


@<TRIPOS>ATOM
      1 N1           8.0330    -3.3300    24.4010 n3         1 Q6U      -0.722600
      2 C4           8.5600    -3.7990    25.6790 c3         1 Q6U       0.252900
      3 C5           9.5380    -4.8960    25.5830 c1         1 Q6U      -0.191100
      4 C6          10.3260    -5.7950    25.4560 c1         1 Q6U      -0.229000
      5 C7           7.2670    -4.3520    23.6910 c6         1 Q6U       0.144300
      6 C8           6.6200    -3.7580    22.4480 c6         1 Q6U       0.098000
      7 O            7.2070    -4.5100    19.8460 o          1 Q6U      -0.613100
      8 C1           7.8700    -3.5940    20.3460 c          1 Q6U       0.602100
      9 C            8.9810    -2.9350    19.5570 c3         1 Q6U      -0.173100
     10 N            7.6350    -3.1410    21.6000 n          1 Q6U      -0.417800
     11 C3           9.0590    -2.7400    23.5440 c6         1 Q6U       0.144300
     12 C2           8.4200    -2.1330    22.3010 c6         1 Q6U       0.098000
     13 H2           9.0260    -2.9530    26.1910 h1         1 Q6U       0.069200
     14 H3           7.7200    -4.1270    26.2970 h1         1 Q6U       0.069200
     15 H4          11.0320    -6.5880    25.3610 ha         1 Q6U       0.255000
     16 H5           6.4920    -4.7340    24.3580 h1         1 Q6U       0.045950
     17 H6           7.9040    -5.1990    23.3900 h1         1 Q6U       0.045950
     18 H7           5.8960    -2.9910    22.7390 h1         1 Q6U       0.062200
     19 H8           6.1090    -4.5270    21.8780 h1         1 Q6U       0.062200
     20 H9           8.9970    -3.3780    18.5640 hc         1 Q6U       0.060367
     21 H10          8.8250    -1.8590    19.4670 hc         1 Q6U       0.060367
     22 H11          9.9500    -3.0940    20.0340 hc         1 Q6U       0.060367
     23 H12          9.8040    -3.4870    23.2300 h1         1 Q6U       0.045950
     24 H13          9.5770    -1.9600    24.1040 h1         1 Q6U       0.045950
     25 H14          9.1900    -1.7280    21.6530 h1         1 Q6U       0.062200
     26 H15          7.7550    -1.3150    22.5940 h1         1 Q6U       0.062200
@<TRIPOS>BOND
     1     1     2 1   
     2     1     5 1   
     3     1    11 1   
     4     2     3 1   
     5     2    13 1   
     6     2    14 1   
     7     3     4 3   
     8     4    15 1   
     9     5     6 1   
    10     5    16 1   
    11     5    17 1   
    12     6    10 1   
    13     6    18 1   
    14     6    19 1   
    15     7     8 2   
    16     8     9 1   
    17     8    10 1   
    18     9    20 1   
    19     9    21 1   
    20     9    22 1   
    21    10    12 1   
    22    11    12 1   
    23    11    23 1   
    24    11    24 1   
    25    12    25 1   
    26    12    26 1   
@<TRIPOS>SUBSTRUCTURE
     1 Q6U         1 TEMP              0 ****  ****    0 ROOT
