@<TRIPOS>MOLECULE
Q6W
   69    74     1     0     0
SMALL
bcc


@<TRIPOS>ATOM
      1 C            1.5820     1.6900     0.0420 ca         1 Q6W      -0.248900
      2 N            3.5080     3.0730     0.3060 nb         1 Q6W      -0.678000
      3 O           -0.2390     0.5760    -0.8760 o          1 Q6W      -0.529100
      4 C1           2.1730     2.9280     0.3320 ca         1 Q6W       0.489100
      5 C2           1.4690     4.1550     0.6330 cc         1 Q6W      -0.209800
      6 C3           0.2030     4.3310     1.0410 cd         1 Q6W      -0.095200
      7 C4          -0.8350     3.3570     1.3020 ca         1 Q6W      -0.013800
      8 C5          -0.8690     2.0340     0.8320 ca         1 Q6W      -0.139600
      9 C6           0.1270     1.4190    -0.0790 c          1 Q6W       0.601300
     10 C7           2.4230     0.6120    -0.2380 ca         1 Q6W      -0.059000
     11 C8           3.8000     0.7510    -0.2120 ca         1 Q6W      -0.098300
     12 C9           4.2790     2.0410     0.0590 ca         1 Q6W       0.425200
     13 C10         -1.9190     3.8050     2.0740 ca         1 Q6W      -0.131000
     14 C11         -2.9630     2.9750     2.4150 ca         1 Q6W      -0.102000
     15 C12         -2.9890     1.6510     1.9750 ca         1 Q6W      -0.086300
     16 C13         -1.9520     1.2140     1.1700 ca         1 Q6W      -0.085000
     17 C14          4.7000    -0.3610    -0.4740 cc         1 Q6W      -0.229300
     18 C15         -4.1410     0.7480     2.3100 c3         1 Q6W      -0.022100
     19 C16         -5.2470     0.8600     1.2600 c3         1 Q6W      -0.155400
     20 C17         -6.4550     0.0140     1.6040 c          1 Q6W       0.665100
     21 N18         -7.0350    -0.6010     0.5660 ns         1 Q6W      -0.566900
     22 O19         -6.8790    -0.0810     2.7490 o          1 Q6W      -0.619100
     23 C20          6.0800    -0.3850    -0.3690 cd         1 Q6W      -0.119300
     24 N21          6.4800    -1.6160    -0.7180 na         1 Q6W       0.117400
     25 N22          5.4590    -2.4070    -1.0370 nd         1 Q6W      -0.521800
     26 C23          4.3790    -1.6670    -0.8980 cc         1 Q6W       0.325200
     27 C24          7.8360    -2.1470    -0.6990 c6         1 Q6W       0.063000
     28 C25          8.2930    -2.4620     0.7220 c6         1 Q6W      -0.130900
     29 C26          9.7230    -3.0070     0.6990 c6         1 Q6W       0.150300
     30 N27         10.6720    -2.1500     0.0100 n7         1 Q6W      -0.789200
     31 C28         10.2260    -1.8220    -1.3330 c6         1 Q6W       0.150300
     32 C29          8.8230    -1.2140    -1.3900 c6         1 Q6W      -0.130900
     33 C30         -8.2170    -1.4070     0.7040 c3         1 Q6W       0.053700
     34 C31         -8.6570    -1.9440    -0.6340 ca         1 Q6W       0.402600
     35 N32         -7.9170    -1.6550    -1.6940 nb         1 Q6W      -0.695000
     36 C33         -8.2880    -2.1240    -2.8820 ca         1 Q6W       0.415200
     37 C34         -9.4140    -2.9050    -3.0690 ca         1 Q6W      -0.248300
     38 C35        -10.1910    -3.2090    -1.9570 ca         1 Q6W      -0.083000
     39 C36         -9.8090    -2.7220    -0.7210 ca         1 Q6W      -0.240300
     40 H2           2.0950     5.0370     0.5780 ha         1 Q6W       0.147000
     41 H3          -0.0780     5.3520     1.2710 ha         1 Q6W       0.129000
     42 H7           1.9810    -0.3490    -0.4660 ha         1 Q6W       0.154000
     43 H9           5.3460     2.2360     0.0670 h4         1 Q6W       0.015100
     44 H10         -1.9210     4.8310     2.4210 ha         1 Q6W       0.134000
     45 H11         -3.7700     3.3560     3.0300 ha         1 Q6W       0.138000
     46 H13         -1.9720     0.1950     0.8030 ha         1 Q6W       0.148000
     47 H15         -3.7940    -0.2860     2.3660 hc         1 Q6W       0.064700
     48 H15A        -4.5410     1.0070     3.2910 hc         1 Q6W       0.064700
     49 H16         -5.5820     1.9000     1.1930 hc         1 Q6W       0.062700
     50 H16A        -4.8560     0.5990     0.2740 hc         1 Q6W       0.062700
     51 HN18        -6.6530    -0.5210    -0.3650 hn         1 Q6W       0.346500
     52 H20          6.7810     0.3770    -0.0710 h4         1 Q6W       0.172000
     53 H23          3.4070    -2.0840    -1.1160 h4         1 Q6W       0.043100
     54 H24          7.7810    -3.0780    -1.2680 h1         1 Q6W       0.091700
     55 H25          8.2550    -1.5530     1.3320 hc         1 Q6W       0.056950
     56 H25A         7.6200    -3.1900     1.1810 hc         1 Q6W       0.056950
     57 H26         10.0720    -3.1740     1.7190 h1         1 Q6W       0.059700
     58 H26A         9.7240    -3.9850     0.2050 h1         1 Q6W       0.059700
     59 HN27        10.7860    -1.2920     0.5380 hn         1 Q6W       0.351800
     60 H28         10.9430    -1.1360    -1.7870 h1         1 Q6W       0.059700
     61 H28A        10.2450    -2.7360    -1.9350 h1         1 Q6W       0.059700
     62 H29          8.5230    -1.0460    -2.4270 hc         1 Q6W       0.056950
     63 H29A         8.8410    -0.2380    -0.8940 hc         1 Q6W       0.056950
     64 H30         -8.0380    -2.2460     1.3840 h1         1 Q6W       0.061700
     65 H30A        -9.0350    -0.8280     1.1440 h1         1 Q6W       0.061700
     66 H33         -7.6530    -1.8640    -3.7220 h4         1 Q6W       0.022100
     67 H34         -9.6750    -3.2630    -4.0550 ha         1 Q6W       0.145000
     68 H35        -11.0810    -3.8160    -2.0560 ha         1 Q6W       0.140000
     69 H36        -10.3900    -2.9370     0.1670 ha         1 Q6W       0.146000
@<TRIPOS>BOND
     1     1     4 ar  
     2     1     9 1   
     3     1    10 ar  
     4     2     4 ar  
     5     2    12 ar  
     6     3     9 2   
     7     4     5 1   
     8     5     6 2   
     9     5    40 1   
    10     6     7 1   
    11     6    41 1   
    12     7     8 ar  
    13     7    13 ar  
    14     8     9 1   
    15     8    16 ar  
    16    10    11 ar  
    17    10    42 1   
    18    11    12 ar  
    19    11    17 1   
    20    12    43 1   
    21    13    14 ar  
    22    13    44 1   
    23    14    15 ar  
    24    14    45 1   
    25    15    16 ar  
    26    15    18 1   
    27    16    46 1   
    28    17    23 2   
    29    17    26 1   
    30    18    19 1   
    31    18    47 1   
    32    18    48 1   
    33    19    20 1   
    34    19    49 1   
    35    19    50 1   
    36    20    21 1   
    37    20    22 2   
    38    21    33 1   
    39    21    51 1   
    40    23    24 1   
    41    23    52 1   
    42    24    25 1   
    43    24    27 1   
    44    25    26 2   
    45    26    53 1   
    46    27    28 1   
    47    27    32 1   
    48    27    54 1   
    49    28    29 1   
    50    28    55 1   
    51    28    56 1   
    52    29    30 1   
    53    29    57 1   
    54    29    58 1   
    55    30    31 1   
    56    30    59 1   
    57    31    32 1   
    58    31    60 1   
    59    31    61 1   
    60    32    62 1   
    61    32    63 1   
    62    33    34 1   
    63    33    64 1   
    64    33    65 1   
    65    34    35 ar  
    66    34    39 ar  
    67    35    36 ar  
    68    36    37 ar  
    69    36    66 1   
    70    37    38 ar  
    71    37    67 1   
    72    38    39 ar  
    73    38    68 1   
    74    39    69 1   
@<TRIPOS>SUBSTRUCTURE
     1 Q6W         1 TEMP              0 ****  ****    0 ROOT
