@<TRIPOS>MOLECULE
Q6W
   69    74     1     0     0
SMALL
No Charge or Current Charge


@<TRIPOS>ATOM
      1 C            1.4630     2.0640    -0.0430 ca         1 Q6W      -0.183600
      2 N            3.4910     3.0870     0.7450 nb         1 Q6W      -0.678000
      3 O           -0.4480     1.8220    -1.3940 o          1 Q6W      -0.529100
      4 C1           2.1600     3.1410     0.5220 ca         1 Q6W       0.423800
      5 C2           1.5740     4.4330     0.8510 cc         1 Q6W      -0.259800
      6 C3           0.3650     4.5640     1.5120 cd         1 Q6W      -0.145200
      7 C4          -0.7240     3.5880     1.6740 ca         1 Q6W      -0.013800
      8 C5          -0.9110     2.4580     0.8450 ca         1 Q6W      -0.139600
      9 C6           0.0030     2.1200    -0.2930 c          1 Q6W       0.601300
     10 C7           2.1700     0.8990    -0.4060 ca         1 Q6W      -0.041000
     11 C8           3.5540     0.8300    -0.1700 ca         1 Q6W      -0.033000
     12 C9           4.1640     1.9600     0.4170 ca         1 Q6W       0.359900
     13 C10         -1.6880     3.8720     2.6630 ca         1 Q6W      -0.113000
     14 C11         -2.7980     3.0370     2.8590 ca         1 Q6W      -0.084000
     15 C12         -2.9800     1.9080     2.0480 ca         1 Q6W      -0.086300
     16 C13         -2.0420     1.6330     1.0380 ca         1 Q6W      -0.067000
     17 C14          4.3110    -0.3770    -0.5270 cc         1 Q6W      -0.164000
     18 C15         -4.1910     1.0050     2.2430 c3         1 Q6W      -0.022100
     19 C16         -5.3940     1.4620     1.3880 c3         1 Q6W      -0.155400
     20 C17         -6.6020     0.5430     1.5870 c          1 Q6W       0.598100
     21 N18         -6.8840    -0.2900     0.5320 ns         1 Q6W      -0.499900
     22 O19         -7.2900     0.5650     2.5980 o          1 Q6W      -0.619100
     23 C20          5.6540    -0.5010    -0.3210 cd         1 Q6W      -0.152000
     24 N21          5.9560    -1.7840    -0.7960 na         1 Q6W       0.138800
     25 N22          4.8470    -2.4600    -1.2900 nd         1 Q6W      -0.521800
     26 C23          3.8820    -1.5820    -1.1110 cc         1 Q6W       0.259900
     27 C24          7.3060    -2.4000    -0.7930 c6         1 Q6W       0.092300
     28 C25          7.8580    -2.5550     0.6490 c6         1 Q6W      -0.130900
     29 C26          9.2760    -3.1690     0.6270 c6         1 Q6W       0.150300
     30 N27         10.1850    -2.3620    -0.2230 n7         1 Q6W      -0.844400
     31 C28          9.7090    -2.2320    -1.6220 c6         1 Q6W       0.150300
     32 C29          8.3030    -1.5910    -1.6640 c6         1 Q6W      -0.130900
     33 C30         -8.0020    -1.2490     0.4860 c3         1 Q6W       0.053700
     34 C31         -8.0040    -2.1570    -0.7500 ca         1 Q6W       0.337300
     35 N32         -7.1840    -1.8200    -1.7810 nb         1 Q6W      -0.695000
     36 C33         -7.1800    -2.6150    -2.8770 ca         1 Q6W       0.349900
     37 C34         -7.9810    -3.7630    -2.9910 ca         1 Q6W      -0.165000
     38 C35         -8.8290    -4.1140    -1.9290 ca         1 Q6W      -0.065000
     39 C36         -8.8360    -3.2920    -0.7910 ca         1 Q6W      -0.157000
     40 H2           2.2130     5.3080     0.7940 ha         1 Q6W       0.197000
     41 H3           0.1550     5.5620     1.8890 ha         1 Q6W       0.179000
     42 H7           1.6420     0.0600    -0.8540 ha         1 Q6W       0.136000
     43 H9           5.2320     1.9790     0.6270 h4         1 Q6W       0.015100
     44 H10         -1.5740     4.7490     3.2960 ha         1 Q6W       0.116000
     45 H11         -3.5210     3.2760     3.6360 ha         1 Q6W       0.120000
     46 H13         -2.1940     0.7690     0.3930 ha         1 Q6W       0.130000
     47 H15         -3.9360    -0.0310     1.9840 hc         1 Q6W       0.064700
     48 H15A        -4.4830     0.9900     3.3010 hc         1 Q6W       0.064700
     49 H16         -5.6710     2.4770     1.6950 hc         1 Q6W       0.062700
     50 H16A        -5.0900     1.4630     0.3350 hc         1 Q6W       0.062700
     51 HN18        -6.2760    -0.2410    -0.2790 hn         1 Q6W       0.346500
     52 H20          6.3960     0.1660     0.1000 h4         1 Q6W       0.154000
     53 H23          2.8780    -1.8480    -1.4140 h4         1 Q6W       0.043100
     54 H24          7.2120    -3.4050    -1.2300 h1         1 Q6W       0.091700
     55 H25          7.8890    -1.5800     1.1530 hc         1 Q6W       0.056950
     56 H25A         7.1880    -3.1930     1.2400 hc         1 Q6W       0.056950
     57 H26          9.6720    -3.2220     1.6520 h1         1 Q6W       0.059700
     58 H26A         9.2250    -4.1990     0.2410 h1         1 Q6W       0.059700
     59 HN27        10.2590    -1.4210     0.1840 hn         1 Q6W       0.407000
     60 H28         10.4140    -1.6160    -2.2000 h1         1 Q6W       0.059700
     61 H28A         9.6750    -3.2250    -2.0960 h1         1 Q6W       0.059700
     62 H29          7.9470    -1.5500    -2.7020 hc         1 Q6W       0.056950
     63 H29A         8.3640    -0.5520    -1.3120 hc         1 Q6W       0.056950
     64 H30         -7.9600    -1.8770     1.3850 h1         1 Q6W       0.061700
     65 H30A        -8.9450    -0.6880     0.5120 h1         1 Q6W       0.061700
     66 H33         -6.5130    -2.3210    -3.6880 h4         1 Q6W       0.022100
     67 H34         -7.9400    -4.3670    -3.8930 ha         1 Q6W       0.127000
     68 H35         -9.4630    -4.9970    -1.9870 ha         1 Q6W       0.122000
     69 H36         -9.4790    -3.5280     0.0530 ha         1 Q6W       0.128000
@<TRIPOS>BOND
     1     1     4 ar  
     2     1     9 1   
     3     1    10 ar  
     4     2     4 ar  
     5     2    12 ar  
     6     3     9 2   
     7     4     5 1   
     8     5     6 2   
     9     5    40 1   
    10     6     7 1   
    11     6    41 1   
    12     7     8 ar  
    13     7    13 ar  
    14     8     9 1   
    15     8    16 ar  
    16    10    11 ar  
    17    10    42 1   
    18    11    12 ar  
    19    11    17 1   
    20    12    43 1   
    21    13    14 ar  
    22    13    44 1   
    23    14    15 ar  
    24    14    45 1   
    25    15    16 ar  
    26    15    18 1   
    27    16    46 1   
    28    17    23 2   
    29    17    26 1   
    30    18    19 1   
    31    18    47 1   
    32    18    48 1   
    33    19    20 1   
    34    19    49 1   
    35    19    50 1   
    36    20    21 1   
    37    20    22 2   
    38    21    33 1   
    39    21    51 1   
    40    23    24 1   
    41    23    52 1   
    42    24    25 1   
    43    24    27 1   
    44    25    26 2   
    45    26    53 1   
    46    27    28 1   
    47    27    32 1   
    48    27    54 1   
    49    28    29 1   
    50    28    55 1   
    51    28    56 1   
    52    29    30 1   
    53    29    57 1   
    54    29    58 1   
    55    30    31 1   
    56    30    59 1   
    57    31    32 1   
    58    31    60 1   
    59    31    61 1   
    60    32    62 1   
    61    32    63 1   
    62    33    34 1   
    63    33    64 1   
    64    33    65 1   
    65    34    35 ar  
    66    34    39 ar  
    67    35    36 ar  
    68    36    37 ar  
    69    36    66 1   
    70    37    38 ar  
    71    37    67 1   
    72    38    39 ar  
    73    38    68 1   
    74    39    69 1   
@<TRIPOS>SUBSTRUCTURE
     1 Q6W         1 TEMP              0 ****  ****    0 ROOT
