@<TRIPOS>MOLECULE
Q6X
   24    24     1     0     0
SMALL
No Charge or Current Charge


@<TRIPOS>ATOM
      1 C4         -49.7920    -7.2400    36.4580 ca         1 Q6X      -0.124600
      2 C5         -48.8170    -8.1880    36.0640 ca         1 Q6X      -0.055000
      3 C6         -48.9620    -8.9010    34.8610 ca         1 Q6X      -0.164500
      4 C7         -50.0710    -8.6650    34.0360 ca         1 Q6X       0.154000
      5 C8         -51.0310    -7.7110    34.3990 ca         1 Q6X      -0.164500
      6 N          -49.0360    -7.0240    38.8680 n          1 Q6X      -0.358800
      7 C          -49.1200    -8.4840    39.1070 c3         1 Q6X       0.097300
      8 O          -49.8870    -4.4790    41.2400 o          1 Q6X      -0.729000
      9 C1         -48.7060    -6.1870    40.0610 c3         1 Q6X      -0.056000
     10 C2         -49.9170    -5.6450    40.8690 c          1 Q6X       0.706000
     11 C3         -49.6610    -6.4350    37.7380 c          1 Q6X       0.603700
     12 C9         -50.8880    -6.9950    35.6010 ca         1 Q6X      -0.055000
     13 F          -50.2060    -9.3500    32.8800 f          1 Q6X      -0.200000
     14 O1         -50.8360    -6.4080    41.1340 o          1 Q6X      -0.729000
     15 O2         -50.0160    -5.2620    37.7610 o          1 Q6X      -0.615100
     16 H6         -47.9310    -8.3570    36.6710 ha         1 Q6X       0.131500
     17 H7         -48.2120    -9.6290    34.5640 ha         1 Q6X       0.122000
     18 H8         -51.8830    -7.5250    33.7500 ha         1 Q6X       0.122000
     19 H1         -49.9210    -8.9310    38.5040 h1         1 Q6X       0.033033
     20 H          -48.1640    -8.9580    38.8550 h1         1 Q6X       0.033033
     21 H2         -49.3390    -8.6810    40.1650 h1         1 Q6X       0.033033
     22 H3         -48.0830    -6.7700    40.7510 h1         1 Q6X       0.042700
     23 H4         -48.1060    -5.3300    39.7280 h1         1 Q6X       0.042700
     24 H9         -51.6390    -6.2550    35.8730 ha         1 Q6X       0.131500
@<TRIPOS>BOND
     1     1     2 ar  
     2     1    11 1   
     3     1    12 ar  
     4     2     3 ar  
     5     2    16 1   
     6     3     4 ar  
     7     3    17 1   
     8     4     5 ar  
     9     4    13 1   
    10     5    12 ar  
    11     5    18 1   
    12     6     7 1   
    13     6     9 1   
    14     6    11 1   
    15     7    19 1   
    16     7    20 1   
    17     7    21 1   
    18     8    10 1   
    19     9    10 1   
    20     9    22 1   
    21     9    23 1   
    22    10    14 1   
    23    11    15 2   
    24    12    24 1   
@<TRIPOS>SUBSTRUCTURE
     1 Q6X         1 TEMP              0 ****  ****    0 ROOT
