@<TRIPOS>MOLECULE
Q6X
   24    24     1     0     0
SMALL
abcg2


@<TRIPOS>ATOM
      1 C4         -49.6910    -7.2410    36.4560 ca         1 Q6X      -0.124600
      2 C5         -48.7290    -8.1350    35.9860 ca         1 Q6X      -0.055000
      3 C6         -48.9460    -8.8630    34.8220 ca         1 Q6X      -0.164500
      4 C7         -50.1440    -8.6900    34.1540 ca         1 Q6X       0.154000
      5 C8         -51.1190    -7.8090    34.5870 ca         1 Q6X      -0.164500
      6 N          -49.0780    -6.9720    38.8120 n          1 Q6X      -0.358800
      7 C          -49.1830    -8.3990    39.0860 c3         1 Q6X       0.097300
      8 O          -49.6430    -5.1110    41.8930 o          1 Q6X      -0.729000
      9 C1         -48.7580    -6.1400    39.9590 c3         1 Q6X      -0.056000
     10 C2         -49.9540    -5.7930    40.8840 c          1 Q6X       0.706000
     11 C3         -49.4450    -6.3790    37.6590 c          1 Q6X       0.603700
     12 C9         -50.8770    -7.0740    35.7400 ca         1 Q6X      -0.055000
     13 F          -50.3730    -9.4100    33.0270 f          1 Q6X      -0.200000
     14 O1         -51.0930    -6.2030    40.5680 o          1 Q6X      -0.729000
     15 O2         -49.5560    -5.1500    37.5500 o          1 Q6X      -0.615100
     16 H6         -47.7990    -8.2620    36.5250 ha         1 Q6X       0.131500
     17 H7         -48.2040    -9.5530    34.4410 ha         1 Q6X       0.122000
     18 H8         -52.0400    -7.7020    34.0310 ha         1 Q6X       0.122000
     19 H1         -49.6950    -8.9120    38.2790 h1         1 Q6X       0.033033
     20 H          -48.1930    -8.8410    39.2210 h1         1 Q6X       0.033033
     21 H2         -49.7590    -8.5370    40.0020 h1         1 Q6X       0.033033
     22 H3         -48.0060    -6.6590    40.5560 h1         1 Q6X       0.042700
     23 H4         -48.3220    -5.2070    39.6100 h1         1 Q6X       0.042700
     24 H9         -51.6180    -6.3680    36.0920 ha         1 Q6X       0.131500
@<TRIPOS>BOND
     1     1     2 ar  
     2     1    11 1   
     3     1    12 ar  
     4     2     3 ar  
     5     2    16 1   
     6     3     4 ar  
     7     3    17 1   
     8     4     5 ar  
     9     4    13 1   
    10     5    12 ar  
    11     5    18 1   
    12     6     7 1   
    13     6     9 1   
    14     6    11 1   
    15     7    19 1   
    16     7    20 1   
    17     7    21 1   
    18     8    10 1   
    19     9    10 1   
    20     9    22 1   
    21     9    23 1   
    22    10    14 1   
    23    11    15 2   
    24    12    24 1   
@<TRIPOS>SUBSTRUCTURE
     1 Q6X         1 TEMP              0 ****  ****    0 ROOT
