@<TRIPOS>MOLECULE
Q6Y
   68    72     1     0     0
SMALL
No Charge or Current Charge


@<TRIPOS>ATOM
      1 C1           2.8310    -1.4190     0.1210 cc         1 Q6Y       0.010600
      2 C2           2.9870    -2.5390    -0.6870 cd         1 Q6Y      -0.111000
      3 C11         -0.7990    -1.8630     1.5320 c3         1 Q6Y       0.229100
      4 C13          3.9360     0.8150    -0.0950 c          1 Q6Y       0.629700
      5 C14          5.2830     1.4730    -0.0620 ca         1 Q6Y      -0.277600
      6 C16          5.4040     2.8570    -0.2970 ca         1 Q6Y       0.152400
      7 C18          7.6780     2.7160    -0.0070 ca         1 Q6Y       0.160300
      8 C20          6.4770     0.7690     0.2090 ca         1 Q6Y       0.152400
      9 C21          9.0250     3.4160     0.0270 c3         1 Q6Y      -0.140400
     10 C23         -1.5080     0.1460     0.2440 c6         1 Q6Y       0.145800
     11 C24         -2.6020     0.7650    -0.6710 c6         1 Q6Y       0.093000
     12 C26         -4.3150    -0.6740     0.4440 c6         1 Q6Y       0.122700
     13 C27         -3.1810    -1.2210     1.3670 c6         1 Q6Y       0.160800
     14 C28         -4.6060    -1.6860    -0.7000 c3         1 Q6Y      -0.106100
     15 C29         -4.9780     1.5580    -0.6040 c          1 Q6Y       0.610100
     16 C30         -6.2440     1.6360     0.3110 c5         1 Q6Y      -0.144700
     17 N3           1.9090    -3.4060    -0.6940 na         1 Q6Y       0.132100
     18 C4           0.7340    -3.1620    -0.0570 cd         1 Q6Y      -0.065000
     19 C5           0.5350    -2.0440     0.8180 cd         1 Q6Y      -0.036300
     20 C6           1.6340    -1.1870     0.9450 cc         1 Q6Y      -0.050300
     21 C7           1.8260    -4.5150    -1.4930 cd         1 Q6Y      -0.285100
     22 C8           0.5400    -4.9510    -1.2470 cc         1 Q6Y      -0.030400
     23 N9          -0.1250    -4.1220    -0.3650 nc         1 Q6Y      -0.282600
     24 C10          1.6310    -0.0420     1.9460 c3         1 Q6Y      -0.048800
     25 N12          3.9240    -0.5550     0.0930 ns         1 Q6Y      -0.423100
     26 O15          2.9190     1.4600    -0.3060 o          1 Q6Y      -0.569100
     27 N17          6.5990     3.4810    -0.2710 nb         1 Q6Y      -0.183500
     28 N19          7.6730     1.3890     0.2360 nb         1 Q6Y      -0.183500
     29 N22         -1.8530    -1.2280     0.6970 n3         1 Q6Y      -0.712600
     30 N25         -3.9820     0.6870    -0.1010 n          1 Q6Y      -0.413800
     31 O31         -4.8060     2.2070    -1.6300 o          1 Q6Y      -0.611100
     32 C32         -6.8070     3.1000     0.3730 c5         1 Q6Y      -0.068900
     33 C33         -7.9960     3.0780    -0.6190 c5         1 Q6Y      -0.080900
     34 C34         -8.6340     1.7200    -0.2510 c5         1 Q6Y      -0.080900
     35 C35         -7.3970     0.7910    -0.3400 c5         1 Q6Y      -0.068900
     36 H1           3.8450    -2.7740    -1.3030 h4         1 Q6Y       0.147000
     37 H2          -1.1400    -2.8590     1.8470 h1         1 Q6Y       0.047700
     38 H3          -0.6650    -1.2920     2.4570 h1         1 Q6Y       0.047700
     39 H4           4.5390     3.4820    -0.5110 h4         1 Q6Y       0.036100
     40 H5           6.4920    -0.3000     0.4120 h4         1 Q6Y       0.036100
     41 H6           9.8360     2.7410    -0.2720 hc         1 Q6Y       0.065367
     42 H7           9.0470     4.2770    -0.6540 hc         1 Q6Y       0.065367
     43 H8           9.2480     3.7820     1.0360 hc         1 Q6Y       0.065367
     44 H9          -0.5590     0.1460    -0.3110 h1         1 Q6Y       0.042200
     45 H10         -1.3730     0.8040     1.1150 h1         1 Q6Y       0.042200
     46 H11         -2.3400     1.8150    -0.8610 h1         1 Q6Y       0.065700
     47 H12         -2.5880     0.2490    -1.6410 h1         1 Q6Y       0.065700
     48 H13         -5.2200    -0.6330     1.0600 h1         1 Q6Y       0.052700
     49 H14         -3.1400    -0.5990     2.2740 h1         1 Q6Y       0.038200
     50 H15         -3.4500    -2.2370     1.6920 h1         1 Q6Y       0.038200
     51 H16         -3.7290    -1.8460    -1.3380 hc         1 Q6Y       0.047033
     52 H17         -4.9020    -2.6610    -0.2950 hc         1 Q6Y       0.047033
     53 H18         -5.4220    -1.3360    -1.3410 hc         1 Q6Y       0.047033
     54 H19         -6.0220     1.2640     1.3160 hc         1 Q6Y       0.056700
     55 H20          2.6240    -4.8890    -2.1260 h4         1 Q6Y       0.231000
     56 H21          0.0340    -5.8190    -1.6620 h4         1 Q6Y       0.226000
     57 H22          2.6400     0.2940     2.2040 hc         1 Q6Y       0.050700
     58 H23          1.0700     0.8190     1.5650 hc         1 Q6Y       0.050700
     59 H24          1.1810    -0.3420     2.8980 hc         1 Q6Y       0.050700
     60 H25          4.8420    -0.9740     0.0290 hn         1 Q6Y       0.326500
     61 H27         -7.1570     3.3350     1.3850 hc         1 Q6Y       0.049950
     62 H28         -6.0620     3.8630     0.1180 hc         1 Q6Y       0.049950
     63 H29         -8.6820     3.9190    -0.4680 hc         1 Q6Y       0.045450
     64 H30         -7.6620     3.1060    -1.6640 hc         1 Q6Y       0.045450
     65 H31         -9.0670     1.7300     0.7570 hc         1 Q6Y       0.045450
     66 H32         -9.4280     1.4260    -0.9480 hc         1 Q6Y       0.045450
     67 H33         -7.1800     0.5460    -1.3870 hc         1 Q6Y       0.049950
     68 H34         -7.5600    -0.1610     0.1780 hc         1 Q6Y       0.049950
@<TRIPOS>BOND
     1     1     2 2   
     2     1    20 1   
     3     1    25 1   
     4     2    17 1   
     5     2    36 1   
     6     3    19 1   
     7     3    29 1   
     8     3    37 1   
     9     3    38 1   
    10     4     5 1   
    11     4    25 1   
    12     4    26 2   
    13     5     6 ar  
    14     5     8 ar  
    15     6    27 ar  
    16     6    39 1   
    17     7     9 1   
    18     7    27 ar  
    19     7    28 ar  
    20     8    28 ar  
    21     8    40 1   
    22     9    41 1   
    23     9    42 1   
    24     9    43 1   
    25    10    11 1   
    26    10    29 1   
    27    10    44 1   
    28    10    45 1   
    29    11    30 1   
    30    11    46 1   
    31    11    47 1   
    32    12    13 1   
    33    12    14 1   
    34    12    30 1   
    35    12    48 1   
    36    13    29 1   
    37    13    49 1   
    38    13    50 1   
    39    14    51 1   
    40    14    52 1   
    41    14    53 1   
    42    15    16 1   
    43    15    30 1   
    44    15    31 2   
    45    16    32 1   
    46    16    35 1   
    47    16    54 1   
    48    17    18 1   
    49    17    21 1   
    50    18    19 1   
    51    18    23 2   
    52    19    20 2   
    53    20    24 1   
    54    21    22 2   
    55    21    55 1   
    56    22    23 1   
    57    22    56 1   
    58    24    57 1   
    59    24    58 1   
    60    24    59 1   
    61    25    60 1   
    62    32    33 1   
    63    32    61 1   
    64    32    62 1   
    65    33    34 1   
    66    33    63 1   
    67    33    64 1   
    68    34    35 1   
    69    34    65 1   
    70    34    66 1   
    71    35    67 1   
    72    35    68 1   
@<TRIPOS>SUBSTRUCTURE
     1 Q6Y         1 TEMP              0 ****  ****    0 ROOT
