@<TRIPOS>MOLECULE
Q6Y
   68    72     1     0     0
SMALL
bcc


@<TRIPOS>ATOM
      1 C1           2.7210    -1.4240     0.1510 cc         1 Q6Y       0.010600
      2 C2           2.7040    -2.4680    -0.7120 cd         1 Q6Y      -0.078300
      3 C11         -0.8030    -1.7020     1.6540 c3         1 Q6Y       0.229100
      4 C13          3.9440     0.5890    -0.3810 c          1 Q6Y       0.696700
      5 C14          5.2390     1.3100    -0.2570 ca         1 Q6Y      -0.408200
      6 C16          5.5650     2.3000    -1.1780 ca         1 Q6Y       0.480700
      7 C18          7.5290     2.6960    -0.1160 ca         1 Q6Y       0.686300
      8 C20          6.1660     1.1060     0.7540 ca         1 Q6Y       0.480700
      9 C21          8.8230     3.4380    -0.0680 c3         1 Q6Y      -0.140400
     10 C23         -1.4980     0.3130     0.5060 c6         1 Q6Y       0.145800
     11 C24         -2.4850     0.8610    -0.5090 c6         1 Q6Y       0.093000
     12 C26         -4.1640    -0.7030     0.3250 c6         1 Q6Y       0.122700
     13 C27         -3.1310    -1.1900     1.3380 c6         1 Q6Y       0.160800
     14 C28         -4.2380    -1.6270    -0.8880 c3         1 Q6Y      -0.106100
     15 C29         -4.7300     1.7020    -0.1000 c          1 Q6Y       0.677100
     16 C30         -6.1510     1.4580     0.3780 c5         1 Q6Y      -0.144700
     17 N3           1.6040    -3.2630    -0.7650 na         1 Q6Y       0.030700
     18 C4           0.4830    -3.0140     0.0010 cd         1 Q6Y      -0.014300
     19 C5           0.4810    -1.9170     0.9040 cd         1 Q6Y      -0.036300
     20 C6           1.6020    -1.1310     1.0010 cc         1 Q6Y      -0.050300
     21 C7           1.3440    -4.3780    -1.5200 cd         1 Q6Y      -0.235100
     22 C8           0.0760    -4.7480    -1.1660 cc         1 Q6Y       0.019600
     23 N9          -0.4530    -3.9130    -0.2360 nc         1 Q6Y      -0.282600
     24 C10          1.7240     0.0260     1.9460 c3         1 Q6Y      -0.048800
     25 N12          3.8890    -0.6300     0.2030 ns         1 Q6Y      -0.490100
     26 O15          3.0020     1.0810    -0.9770 o          1 Q6Y      -0.569100
     27 N17          6.6950     2.9800    -1.1160 nb         1 Q6Y      -0.709500
     28 N19          7.2970     1.7890     0.8290 nb         1 Q6Y      -0.709500
     29 N22         -1.7940    -1.0710     0.8050 n3         1 Q6Y      -0.712600
     30 N25         -3.8510     0.6730    -0.0500 n          1 Q6Y      -0.480800
     31 O31         -4.4050     2.7980    -0.5430 o          1 Q6Y      -0.611100
     32 C32         -6.9020     2.7580     0.7480 c5         1 Q6Y      -0.068900
     33 C33         -7.9960     2.9220    -0.3070 c5         1 Q6Y      -0.080900
     34 C34         -8.3580     1.4840    -0.6600 c5         1 Q6Y      -0.080900
     35 C35         -6.9940     0.8040    -0.7500 c5         1 Q6Y      -0.068900
     36 H1           3.5280    -2.7120    -1.3670 h4         1 Q6Y       0.165000
     37 H2          -1.1930    -2.6770     1.9510 h1         1 Q6Y       0.047700
     38 H3          -0.6340    -1.1420     2.5840 h1         1 Q6Y       0.047700
     39 H4           4.8910     2.5400    -1.9920 h4         1 Q6Y       0.036100
     40 H5           5.9940     0.3870     1.5490 h4         1 Q6Y       0.036100
     41 H6           9.5590     2.9330    -0.6980 hc         1 Q6Y       0.065367
     42 H7           8.7070     4.4500    -0.4500 hc         1 Q6Y       0.065367
     43 H8           9.2200     3.4720     0.9440 hc         1 Q6Y       0.065367
     44 H9          -0.4950     0.3940     0.0820 h1         1 Q6Y       0.042200
     45 H10         -1.5220     0.9420     1.4130 h1         1 Q6Y       0.042200
     46 H11         -2.3010     1.9200    -0.6620 h1         1 Q6Y       0.065700
     47 H12         -2.3380     0.3600    -1.4710 h1         1 Q6Y       0.065700
     48 H13         -5.1280    -0.7210     0.8280 h1         1 Q6Y       0.052700
     49 H14         -3.2570    -0.6240     2.2770 h1         1 Q6Y       0.038200
     50 H15         -3.3360    -2.2390     1.5630 h1         1 Q6Y       0.038200
     51 H16         -3.2530    -1.8170    -1.3120 hc         1 Q6Y       0.047033
     52 H17         -4.6580    -2.5880    -0.5900 hc         1 Q6Y       0.047033
     53 H18         -4.8780    -1.2080    -1.6650 hc         1 Q6Y       0.047033
     54 H19         -6.1490     0.8050     1.2510 hc         1 Q6Y       0.056700
     55 H20          2.0600    -4.7890    -2.2100 h4         1 Q6Y       0.181000
     56 H21         -0.4800    -5.5900    -1.5490 h4         1 Q6Y       0.176000
     57 H22          2.6810     0.0030     2.4670 hc         1 Q6Y       0.050700
     58 H23          1.6710     0.9760     1.4120 hc         1 Q6Y       0.050700
     59 H24          0.9410     0.0350     2.6990 hc         1 Q6Y       0.050700
     60 H25          4.7350    -1.0600     0.5430 hn         1 Q6Y       0.326500
     61 H27         -7.3610     2.6290     1.7300 hc         1 Q6Y       0.049950
     62 H28         -6.2460     3.6240     0.8140 hc         1 Q6Y       0.049950
     63 H29         -8.8450     3.5070     0.0520 hc         1 Q6Y       0.045450
     64 H30         -7.6000     3.4300    -1.1910 hc         1 Q6Y       0.045450
     65 H31         -8.9510     1.0390     0.1440 hc         1 Q6Y       0.045450
     66 H32         -8.9350     1.3930    -1.5810 hc         1 Q6Y       0.045450
     67 H33         -6.5550     1.0210    -1.7280 hc         1 Q6Y       0.049950
     68 H34         -7.0450    -0.2810    -0.6540 hc         1 Q6Y       0.049950
@<TRIPOS>BOND
     1     1     2 2   
     2     1    20 1   
     3     1    25 1   
     4     2    17 1   
     5     2    36 1   
     6     3    19 1   
     7     3    29 1   
     8     3    37 1   
     9     3    38 1   
    10     4     5 1   
    11     4    25 1   
    12     4    26 2   
    13     5     6 ar  
    14     5     8 ar  
    15     6    27 ar  
    16     6    39 1   
    17     7     9 1   
    18     7    27 ar  
    19     7    28 ar  
    20     8    28 ar  
    21     8    40 1   
    22     9    41 1   
    23     9    42 1   
    24     9    43 1   
    25    10    11 1   
    26    10    29 1   
    27    10    44 1   
    28    10    45 1   
    29    11    30 1   
    30    11    46 1   
    31    11    47 1   
    32    12    13 1   
    33    12    14 1   
    34    12    30 1   
    35    12    48 1   
    36    13    29 1   
    37    13    49 1   
    38    13    50 1   
    39    14    51 1   
    40    14    52 1   
    41    14    53 1   
    42    15    16 1   
    43    15    30 1   
    44    15    31 2   
    45    16    32 1   
    46    16    35 1   
    47    16    54 1   
    48    17    18 1   
    49    17    21 1   
    50    18    19 1   
    51    18    23 2   
    52    19    20 2   
    53    20    24 1   
    54    21    22 2   
    55    21    55 1   
    56    22    23 1   
    57    22    56 1   
    58    24    57 1   
    59    24    58 1   
    60    24    59 1   
    61    25    60 1   
    62    32    33 1   
    63    32    61 1   
    64    32    62 1   
    65    33    34 1   
    66    33    63 1   
    67    33    64 1   
    68    34    35 1   
    69    34    65 1   
    70    34    66 1   
    71    35    67 1   
    72    35    68 1   
@<TRIPOS>SUBSTRUCTURE
     1 Q6Y         1 TEMP              0 ****  ****    0 ROOT
