@<TRIPOS>MOLECULE
Q6Z
   23    23     1     0     0
SMALL
No Charge or Current Charge


@<TRIPOS>ATOM
      1 O1           2.4390    -0.7410     0.2710 oh         1 Q6Z      -0.672000
      2 CAR          1.2660    -0.0780    -0.2300 c6         1 Q6Z       0.129300
      3 CAW          1.2530     1.3990     0.2310 c6         1 Q6Z      -0.105400
      4 CAV         -0.0150     2.1240    -0.2830 c6         1 Q6Z      -0.071400
      5 CAU         -1.3040     1.3930     0.1690 c6         1 Q6Z      -0.077400
      6 CAT         -1.3090    -0.1000    -0.2690 c6         1 Q6Z      -0.057700
      7 CAA         -2.6140    -0.8020     0.2020 c3         1 Q6Z      -0.079100
      8 CAS         -0.0240    -0.8190     0.2480 c6         1 Q6Z       0.182300
      9 OAX          0.0290    -2.1800    -0.2030 oh         1 Q6Z      -0.662000
     10 H1           3.2130    -0.2170    -0.0320 ho         1 Q6Z       0.447000
     11 HAR          1.2800    -0.0890    -1.3310 h1         1 Q6Z       0.039700
     12 HAW1         1.2890     1.4510     1.3290 hc         1 Q6Z       0.046700
     13 HAW2         2.1470     1.9190    -0.1390 hc         1 Q6Z       0.046700
     14 HAS         -0.0400    -0.7990     1.3480 h1         1 Q6Z       0.039700
     15 HAV1        -0.0270     3.1600     0.0850 hc         1 Q6Z       0.042200
     16 HAV2         0.0100     2.1840    -1.3800 hc         1 Q6Z       0.042200
     17 HAU1        -1.3970     1.4600     1.2630 hc         1 Q6Z       0.043200
     18 HAU2        -2.1800     1.9090    -0.2470 hc         1 Q6Z       0.043200
     19 HAT         -1.3150    -0.1390    -1.3680 hc         1 Q6Z       0.054700
     20 HAA1        -3.5020    -0.2740    -0.1650 hc         1 Q6Z       0.036700
     21 HAA2        -2.6730    -1.8330    -0.1680 hc         1 Q6Z       0.036700
     22 HAA3        -2.6750    -0.8360     1.2970 hc         1 Q6Z       0.036700
     23 HAX          0.9780    -2.4240    -0.1120 ho         1 Q6Z       0.457000
@<TRIPOS>BOND
     1     1     2 1   
     2     1    10 1   
     3     2     3 1   
     4     2     8 1   
     5     2    11 1   
     6     3     4 1   
     7     3    12 1   
     8     3    13 1   
     9     4     5 1   
    10     4    15 1   
    11     4    16 1   
    12     5     6 1   
    13     5    17 1   
    14     5    18 1   
    15     6     7 1   
    16     6     8 1   
    17     6    19 1   
    18     7    20 1   
    19     7    21 1   
    20     7    22 1   
    21     8     9 1   
    22     8    14 1   
    23     9    23 1   
@<TRIPOS>SUBSTRUCTURE
     1 Q6Z         1 TEMP              0 ****  ****    0 ROOT
