@<TRIPOS>MOLECULE
Q6Z
   23    23     1     0     0
SMALL
bcc


@<TRIPOS>ATOM
      1 O1           2.3590    -0.7330     0.2850 oh         1 Q6Z      -0.609800
      2 CAR          1.2440    -0.0250    -0.2270 c6         1 Q6Z       0.106100
      3 CAW          1.2200     1.4250     0.2350 c6         1 Q6Z      -0.105400
      4 CAV         -0.0370     2.1290    -0.2610 c6         1 Q6Z      -0.071400
      5 CAU         -1.2890     1.3760     0.1680 c6         1 Q6Z      -0.077400
      6 CAT         -1.2710    -0.0870    -0.2760 c6         1 Q6Z      -0.057700
      7 CAA         -2.5340    -0.8080     0.1810 c3         1 Q6Z      -0.079100
      8 CAS         -0.0050    -0.7690     0.2360 c6         1 Q6Z       0.159100
      9 OAX          0.0080    -2.1050    -0.2170 oh         1 Q6Z      -0.599800
     10 H1           3.1480    -0.4290    -0.1730 ho         1 Q6Z       0.408000
     11 HAR          1.2550    -0.0430    -1.3280 h1         1 Q6Z       0.039700
     12 HAW1         1.2580     1.4560     1.3300 hc         1 Q6Z       0.046700
     13 HAW2         2.1160     1.9400    -0.1250 hc         1 Q6Z       0.046700
     14 HAS         -0.0240    -0.7350     1.3410 h1         1 Q6Z       0.039700
     15 HAV1        -0.0650     3.1550     0.1120 hc         1 Q6Z       0.042200
     16 HAV2        -0.0100     2.1970    -1.3530 hc         1 Q6Z       0.042200
     17 HAU1        -1.3870     1.4190     1.2600 hc         1 Q6Z       0.043200
     18 HAU2        -2.1800     1.8630    -0.2370 hc         1 Q6Z       0.043200
     19 HAT         -1.2380    -0.1080    -1.3730 hc         1 Q6Z       0.054700
     20 HAA1        -3.4210    -0.3010    -0.2010 hc         1 Q6Z       0.036700
     21 HAA2        -2.5690    -1.8400    -0.1670 hc         1 Q6Z       0.036700
     22 HAA3        -2.6060    -0.8200     1.2710 hc         1 Q6Z       0.036700
     23 HAX          0.8550    -2.4880     0.0340 ho         1 Q6Z       0.418000
@<TRIPOS>BOND
     1     1     2 1   
     2     1    10 1   
     3     2     3 1   
     4     2     8 1   
     5     2    11 1   
     6     3     4 1   
     7     3    12 1   
     8     3    13 1   
     9     4     5 1   
    10     4    15 1   
    11     4    16 1   
    12     5     6 1   
    13     5    17 1   
    14     5    18 1   
    15     6     7 1   
    16     6     8 1   
    17     6    19 1   
    18     7    20 1   
    19     7    21 1   
    20     7    22 1   
    21     8     9 1   
    22     8    14 1   
    23     9    23 1   
@<TRIPOS>SUBSTRUCTURE
     1 Q6Z         1 TEMP              0 ****  ****    0 ROOT
