@<TRIPOS>MOLECULE
Q71
   19    20     1     0     0
SMALL
No Charge or Current Charge


@<TRIPOS>ATOM
      1 C01         -2.8330    -0.0350     0.0010 ca         1 Q71       0.134000
      2 C02         -2.6800    -1.4310     0.0070 ca         1 Q71      -0.064000
      3 C03         -1.3900    -1.9950     0.0110 ca         1 Q71      -0.144000
      4 C04         -0.2530    -1.1660     0.0080 ca         1 Q71       0.062000
      5 C05         -0.4130     0.2290     0.0010 ca         1 Q71      -0.310500
      6 C06         -1.7040     0.8010    -0.0020 ca         1 Q71      -0.021000
      7 C08          2.2810    -1.1490     0.0090 c          1 Q71       0.636000
      8 F14         -4.0720     0.5050    -0.0020 f          1 Q71      -0.167000
      9 N07          1.0340    -1.7450     0.0110 ns         1 Q71      -0.155000
     10 N09          2.3270     0.2060     0.0030 ns         1 Q71      -0.577300
     11 O11          3.3100    -1.8020     0.0120 o          1 Q71      -0.522000
     12 S10          1.0400     1.2620    -0.0030 sy         1 Q71       1.198300
     13 H021        -3.5580    -2.0720     0.0100 ha         1 Q71       0.141000
     14 H031        -1.2770    -3.0770     0.0150 ha         1 Q71       0.128000
     15 H061        -1.8380     1.8810    -0.0070 ha         1 Q71       0.156000
     16 H071         1.0490    -2.7560     0.0150 hn         1 Q71       0.185000
     17 H1           3.2150     0.6760     0.0010 hn         1 Q71       0.356500
     18 O12          1.1010     1.9840    -1.2770 o          1 Q71      -0.518000
     19 O13          1.1000     1.9950     1.2660 o          1 Q71      -0.518000
@<TRIPOS>BOND
     1     1     2 ar  
     2     1     6 ar  
     3     1     8 1   
     4     2     3 ar  
     5     2    13 1   
     6     3     4 ar  
     7     3    14 1   
     8     4     5 ar  
     9     4     9 1   
    10     5     6 ar  
    11     5    12 1   
    12     6    15 1   
    13     7     9 1   
    14     7    10 1   
    15     7    11 2   
    16     9    16 1   
    17    10    12 1   
    18    10    17 1   
    19    12    18 2   
    20    12    19 2   
@<TRIPOS>SUBSTRUCTURE
     1 Q71         1 TEMP              0 ****  ****    0 ROOT
