@<TRIPOS>MOLECULE
Q71
   19    20     1     0     0
SMALL
abcg2


@<TRIPOS>ATOM
      1 C01         -2.7420    -0.0380     0.2060 ca         1 Q71       0.134000
      2 C02         -2.6140    -1.4090     0.0510 ca         1 Q71      -0.064000
      3 C03         -1.3600    -1.9640    -0.1160 ca         1 Q71      -0.144000
      4 C04         -0.2280    -1.1510    -0.1460 ca         1 Q71       0.062000
      5 C05         -0.4050     0.2220    -0.0160 ca         1 Q71      -0.310500
      6 C06         -1.6510     0.8000     0.1750 ca         1 Q71      -0.021000
      7 C08          2.2150    -1.1390     0.1010 c          1 Q71       0.636000
      8 F14         -3.9600     0.4860     0.3850 f          1 Q71      -0.167000
      9 N07          1.0350    -1.7060    -0.2850 ns         1 Q71      -0.155000
     10 N09          2.1230     0.2010     0.4530 ns         1 Q71      -0.577300
     11 O11          3.2530    -1.7540     0.1750 o          1 Q71      -0.522000
     12 S10          1.0050     1.2330    -0.2370 sy         1 Q71       1.198300
     13 H021        -3.4890    -2.0440     0.0750 ha         1 Q71       0.141000
     14 H031        -1.2560    -3.0360    -0.2110 ha         1 Q71       0.128000
     15 H061        -1.7680     1.8700     0.2880 ha         1 Q71       0.156000
     16 H071         1.0850    -2.6930    -0.4940 hn         1 Q71       0.185000
     17 H1           2.9900     0.6390     0.7500 hn         1 Q71       0.356500
     18 O12          1.2600     1.3690    -1.6570 o          1 Q71      -0.518000
     19 O13          0.9450     2.4230     0.5830 o          1 Q71      -0.518000
@<TRIPOS>BOND
     1     1     2 ar  
     2     1     6 ar  
     3     1     8 1   
     4     2     3 ar  
     5     2    13 1   
     6     3     4 ar  
     7     3    14 1   
     8     4     5 ar  
     9     4     9 1   
    10     5     6 ar  
    11     5    12 1   
    12     6    15 1   
    13     7     9 1   
    14     7    10 1   
    15     7    11 2   
    16     9    16 1   
    17    10    12 1   
    18    10    17 1   
    19    12    18 2   
    20    12    19 2   
@<TRIPOS>SUBSTRUCTURE
     1 Q71         1 TEMP              0 ****  ****    0 ROOT
