@<TRIPOS>MOLECULE
Q73
   80    80     1     0     0
SMALL
abcg2


@<TRIPOS>ATOM
      1 O4          25.1110    24.8310   -26.1460 o          1 Q73      -0.743000
      2 C27         25.1400    23.6710   -26.6130 c          1 Q73       0.712000
      3 O3          26.1660    23.0150   -26.8850 o          1 Q73      -0.743000
      4 C26         23.7990    22.9560   -26.8780 c3         1 Q73      -0.241400
      5 C25         22.5390    23.7550   -26.5470 c3         1 Q73       0.181500
      6 N1          22.3520    24.9520   -27.3610 n8         1 Q73      -1.013200
      7 C24         21.2550    22.9100   -26.5420 c3         1 Q73      -0.056400
      8 C23         20.6050    22.6130   -27.8930 c3         1 Q73       0.196500
      9 O2          21.4880    21.8570   -28.6880 oh         1 Q73      -0.639000
     10 C22         19.2830    21.9320   -27.6740 c2         1 Q73      -0.228200
     11 C21         19.0120    20.6680   -28.0090 ce         1 Q73      -0.207000
     12 C19         17.7370    19.9870   -27.7900 ce         1 Q73      -0.061200
     13 C20         16.6270    20.7680   -27.1470 c3         1 Q73      -0.054900
     14 C17         17.5450    18.7020   -28.1310 c2         1 Q73      -0.229200
     15 C16         18.5200    17.7510   -28.7590 c3         1 Q73      -0.019500
     16 C18         17.8560    16.9980   -29.9090 c3         1 Q73      -0.084100
     17 C15         19.0510    16.7800   -27.6820 c3         1 Q73      -0.041200
     18 C13         20.0930    15.8290   -28.1950 c2         1 Q73      -0.077400
     19 C14         21.3630    16.4650   -28.6790 c3         1 Q73      -0.064900
     20 C12         19.8510    14.5090   -28.2350 ce         1 Q73      -0.212000
     21 C11         20.7290    13.4780   -28.7600 ce         1 Q73      -0.157000
     22 C10         20.3640    12.1940   -28.8450 c2         1 Q73      -0.230200
     23 C9          21.1900    11.0850   -29.4260 c3         1 Q73       0.207700
     24 N           22.5770    11.4770   -29.6020 n8         1 Q73      -1.003200
     25 C3          20.6250    10.6270   -30.7840 c6         1 Q73       0.188300
     26 O           19.3000    10.1980   -30.5410 os         1 Q73      -0.461000
     27 C2          18.6490     9.6810   -31.6750 c6         1 Q73       0.216500
     28 C5          17.3200     9.1190   -31.2870 c2         1 Q73      -0.227200
     29 C6          16.7990     9.0870   -30.0650 c2         1 Q73      -0.199200
     30 C7          15.4610     8.5110   -29.7320 c3         1 Q73      -0.058900
     31 C1          18.5240    10.7590   -32.7650 c6         1 Q73      -0.082700
     32 C8          17.6060    11.9050   -32.3520 c3         1 Q73      -0.083100
     33 C           19.9230    11.2660   -33.1220 c6         1 Q73       0.169300
     34 O1          20.5950    10.2190   -33.7960 oh         1 Q73      -0.672000
     35 C4          20.6650    11.7010   -31.8610 c6         1 Q73      -0.139400
     36 H2          23.8020    22.0230   -26.3020 hc         1 Q73       0.032200
     37 H3          23.7770    22.6430   -27.9260 hc         1 Q73       0.032200
     38 H4          22.6510    24.1070   -25.5160 h1         1 Q73       0.059700
     39 H5          23.1720    25.5300   -27.2160 hn         1 Q73       0.397000
     40 H6          22.3820    24.6940   -28.3410 hn         1 Q73       0.397000
     41 H8          21.4380    21.9650   -26.0220 hc         1 Q73       0.035200
     42 H9          20.5050    23.4440   -25.9510 hc         1 Q73       0.035200
     43 H10         20.3890    23.5800   -28.3730 h1         1 Q73       0.044700
     44 H11         21.1030    21.7720   -29.5670 ho         1 Q73       0.425000
     45 H12         18.5300    22.5520   -27.1950 ha         1 Q73       0.168000
     46 H13         19.7990    20.0880   -28.4780 ha         1 Q73       0.181000
     47 H14         15.7300    20.1590   -27.0330 hc         1 Q73       0.037367
     48 H15         16.9140    21.1290   -26.1570 hc         1 Q73       0.037367
     49 H16         16.3610    21.6480   -27.7360 hc         1 Q73       0.037367
     50 H17         16.5720    18.2670   -27.9130 ha         1 Q73       0.158000
     51 H18         19.3700    18.3050   -29.1640 hc         1 Q73       0.059700
     52 H19         18.5520    16.3100   -30.3910 hc         1 Q73       0.031367
     53 H20         17.0060    16.4120   -29.5510 hc         1 Q73       0.031367
     54 H21         17.4890    17.6890   -30.6680 hc         1 Q73       0.031367
     55 H22         19.4780    17.3780   -26.8690 hc         1 Q73       0.050200
     56 H23         18.2080    16.2240   -27.2620 hc         1 Q73       0.050200
     57 H24         21.6700    17.2700   -28.0080 hc         1 Q73       0.046700
     58 H25         22.1930    15.7650   -28.7570 hc         1 Q73       0.046700
     59 H26         21.2280    16.9180   -29.6650 hc         1 Q73       0.046700
     60 H27         18.8880    14.1620   -27.8690 ha         1 Q73       0.164000
     61 H28         21.7060    13.7680   -29.1300 ha         1 Q73       0.185000
     62 H29         19.3810    11.9070   -28.4850 ha         1 Q73       0.177000
     63 H30         21.0820    10.2180   -28.7540 h1         1 Q73       0.030700
     64 H31         22.9830    11.6910   -28.7000 hn         1 Q73       0.398500
     65 H32         23.1060    10.6920   -29.9640 hn         1 Q73       0.398500
     66 H34         21.2260     9.7650   -31.1190 h1         1 Q73       0.028700
     67 H35         19.2460     8.8540   -32.0950 h1         1 Q73       0.050700
     68 H36         16.7540     8.7040   -32.1180 ha         1 Q73       0.167000
     69 H37         17.3600     9.5000   -29.2330 ha         1 Q73       0.184000
     70 H38         14.8060     9.2660   -29.2920 hc         1 Q73       0.036367
     71 H39         14.9620     8.1040   -30.6110 hc         1 Q73       0.036367
     72 H40         15.5500     7.7110   -28.9930 hc         1 Q73       0.036367
     73 H41         18.0990    10.2830   -33.6560 hc         1 Q73       0.060700
     74 H42         16.5840    11.5560   -32.2080 hc         1 Q73       0.038700
     75 H43         17.9220    12.3770   -31.4220 hc         1 Q73       0.038700
     76 H44         17.5830    12.6780   -33.1220 hc         1 Q73       0.038700
     77 H45         19.8220    12.1370   -33.7850 h1         1 Q73       0.036700
     78 H46         21.5050    10.4920   -33.9480 ho         1 Q73       0.443000
     79 H47         21.7020    11.9450   -32.1040 hc         1 Q73       0.067200
     80 H48         20.2180    12.6230   -31.4830 hc         1 Q73       0.067200
@<TRIPOS>BOND
     1     1     2 1   
     2     2     3 1   
     3     2     4 1   
     4     4     5 1   
     5     4    36 1   
     6     4    37 1   
     7     5     6 1   
     8     5     7 1   
     9     5    38 1   
    10     6    39 1   
    11     6    40 1   
    12     7     8 1   
    13     7    41 1   
    14     7    42 1   
    15     8     9 1   
    16     8    10 1   
    17     8    43 1   
    18     9    44 1   
    19    10    11 2   
    20    10    45 1   
    21    11    12 1   
    22    11    46 1   
    23    12    13 1   
    24    12    14 2   
    25    13    47 1   
    26    13    48 1   
    27    13    49 1   
    28    14    15 1   
    29    14    50 1   
    30    15    16 1   
    31    15    17 1   
    32    15    51 1   
    33    16    52 1   
    34    16    53 1   
    35    16    54 1   
    36    17    18 1   
    37    17    55 1   
    38    17    56 1   
    39    18    19 1   
    40    18    20 2   
    41    19    57 1   
    42    19    58 1   
    43    19    59 1   
    44    20    21 1   
    45    20    60 1   
    46    21    22 2   
    47    21    61 1   
    48    22    23 1   
    49    22    62 1   
    50    23    24 1   
    51    23    25 1   
    52    23    63 1   
    53    24    64 1   
    54    24    65 1   
    55    25    26 1   
    56    25    35 1   
    57    25    66 1   
    58    26    27 1   
    59    27    28 1   
    60    27    31 1   
    61    27    67 1   
    62    28    29 2   
    63    28    68 1   
    64    29    30 1   
    65    29    69 1   
    66    30    70 1   
    67    30    71 1   
    68    30    72 1   
    69    31    32 1   
    70    31    33 1   
    71    31    73 1   
    72    32    74 1   
    73    32    75 1   
    74    32    76 1   
    75    33    34 1   
    76    33    35 1   
    77    33    77 1   
    78    34    78 1   
    79    35    79 1   
    80    35    80 1   
@<TRIPOS>SUBSTRUCTURE
     1 Q73         1 TEMP              0 ****  ****    0 ROOT
