@<TRIPOS>MOLECULE
Q73
   80    80     1     0     0
SMALL
No Charge or Current Charge


@<TRIPOS>ATOM
      1 O4          25.6890    23.9040   -27.6520 o          1 Q73      -0.743000
      2 C27         25.2690    22.7710   -27.8320 c          1 Q73       0.712000
      3 O3          25.9630    21.7700   -27.7360 o          1 Q73      -0.743000
      4 C26         23.7790    22.5900   -28.1410 c3         1 Q73      -0.241400
      5 C25         22.9840    22.3990   -26.8310 c3         1 Q73       0.181500
      6 N1          22.8590    23.6870   -26.1270 n8         1 Q73      -1.013200
      7 C24         21.5990    21.7080   -27.0020 c3         1 Q73      -0.056400
      8 C23         20.5350    22.4570   -27.8540 c3         1 Q73       0.196500
      9 O2          20.8220    22.3370   -29.2470 oh         1 Q73      -0.639000
     10 C22         19.1430    21.9060   -27.6260 c2         1 Q73      -0.228200
     11 C21         18.7230    20.6570   -27.9400 ce         1 Q73      -0.207000
     12 C19         17.3680    20.1110   -27.7070 ce         1 Q73      -0.061200
     13 C20         16.3370    21.0430   -27.0840 c3         1 Q73      -0.054900
     14 C17         17.0310    18.8370   -28.0230 c2         1 Q73      -0.229200
     15 C16         17.9100    17.7580   -28.6420 c3         1 Q73      -0.019500
     16 C18         17.0520    16.6940   -29.3660 c3         1 Q73      -0.084100
     17 C15         18.8410    17.1270   -27.5720 c3         1 Q73      -0.041200
     18 C13         19.8680    16.1580   -28.1450 c2         1 Q73      -0.077400
     19 C14         21.0010    16.8560   -28.8860 c3         1 Q73      -0.064900
     20 C12         19.7390    14.8150   -28.0240 ce         1 Q73      -0.212000
     21 C11         20.6530    13.8120   -28.5890 ce         1 Q73      -0.157000
     22 C10         20.4650    12.4810   -28.4440 c2         1 Q73      -0.230200
     23 C9          21.3190    11.3650   -29.0160 c3         1 Q73       0.207700
     24 N           22.7440    11.7430   -28.9000 n8         1 Q73      -1.003200
     25 C3          20.8870    10.8840   -30.4550 c6         1 Q73       0.188300
     26 O           19.5210    10.4100   -30.3760 os         1 Q73      -0.461000
     27 C2          19.0310     9.8220   -31.6000 c6         1 Q73       0.216500
     28 C5          17.6650     9.1820   -31.3730 c2         1 Q73      -0.227200
     29 C6          16.7660     9.5900   -30.4590 c2         1 Q73      -0.199200
     30 C7          15.4060     8.9660   -30.2330 c3         1 Q73      -0.058900
     31 C1          19.0150    10.8920   -32.7360 c6         1 Q73      -0.082700
     32 C8          17.9500    12.0090   -32.5060 c3         1 Q73      -0.083100
     33 C           20.4430    11.4890   -32.9060 c6         1 Q73       0.169300
     34 O1          21.3250    10.5130   -33.4750 oh         1 Q73      -0.672000
     35 C4          21.0030    11.9840   -31.5490 c6         1 Q73      -0.139400
     36 H2          23.6390    21.6640   -28.7110 hc         1 Q73       0.032200
     37 H3          23.3730    23.4770   -28.6430 hc         1 Q73       0.032200
     38 H4          23.5800    21.7340   -26.1870 h1         1 Q73       0.059700
     39 H5          23.7830    24.1360   -26.1360 hn         1 Q73       0.397000
     40 H6          22.2970    24.3170   -26.7070 hn         1 Q73       0.397000
     41 H8          21.7490    20.7030   -27.4140 hc         1 Q73       0.035200
     42 H9          21.1820    21.5550   -25.9990 hc         1 Q73       0.035200
     43 H10         20.5300    23.5160   -27.5630 h1         1 Q73       0.044700
     44 H11         19.9780    22.5150   -29.7120 ho         1 Q73       0.425000
     45 H12         18.4750    22.6280   -27.1560 ha         1 Q73       0.168000
     46 H13         19.4440    19.9810   -28.4000 ha         1 Q73       0.181000
     47 H14         15.3600    20.5590   -26.9670 hc         1 Q73       0.037367
     48 H15         16.6530    21.3750   -26.0880 hc         1 Q73       0.037367
     49 H16         16.1820    21.9340   -27.7040 hc         1 Q73       0.037367
     50 H17         16.0150    18.4950   -27.8170 ha         1 Q73       0.158000
     51 H18         18.5380    18.2170   -29.4150 hc         1 Q73       0.059700
     52 H19         17.6860    15.9710   -29.8930 hc         1 Q73       0.031367
     53 H20         16.4240    16.1450   -28.6540 hc         1 Q73       0.031367
     54 H21         16.3980    17.1680   -30.1070 hc         1 Q73       0.031367
     55 H22         19.3520    17.9240   -27.0190 hc         1 Q73       0.050200
     56 H23         18.2160    16.6180   -26.8270 hc         1 Q73       0.050200
     57 H24         21.1320    17.8940   -28.5570 hc         1 Q73       0.046700
     58 H25         21.9610    16.3540   -28.7240 hc         1 Q73       0.046700
     59 H26         20.8080    16.8730   -29.9650 hc         1 Q73       0.046700
     60 H27         18.8790    14.4160   -27.4830 ha         1 Q73       0.164000
     61 H28         21.5060    14.1710   -29.1660 ha         1 Q73       0.185000
     62 H29         19.6050    12.1100   -27.8850 ha         1 Q73       0.177000
     63 H30         21.1890    10.4930   -28.3600 h1         1 Q73       0.030700
     64 H31         22.9450    11.9350   -27.9140 hn         1 Q73       0.398500
     65 H32         23.3240    10.9240   -29.1120 hn         1 Q73       0.398500
     66 H34         21.5280    10.0330   -30.7300 h1         1 Q73       0.028700
     67 H35         19.7260     9.0190   -31.8890 h1         1 Q73       0.050700
     68 H36         17.4410     8.3370   -32.0240 ha         1 Q73       0.167000
     69 H37         16.9850    10.4380   -29.8070 ha         1 Q73       0.184000
     70 H38         14.6080     9.6990   -30.3960 hc         1 Q73       0.036367
     71 H39         15.2290     8.1230   -30.9120 hc         1 Q73       0.036367
     72 H40         15.3130     8.5920   -29.2060 hc         1 Q73       0.036367
     73 H41         18.7320    10.3980   -33.6750 hc         1 Q73       0.060700
     74 H42         16.9320    11.6030   -32.5360 hc         1 Q73       0.038700
     75 H43         18.0790    12.5060   -31.5370 hc         1 Q73       0.038700
     76 H44         18.0100    12.7790   -33.2850 hc         1 Q73       0.038700
     77 H45         20.3810    12.3500   -33.5890 h1         1 Q73       0.036700
     78 H46         22.1560    10.9840   -33.7050 ho         1 Q73       0.443000
     79 H47         22.0480    12.2970   -31.6620 hc         1 Q73       0.067200
     80 H48         20.4500    12.8780   -31.2370 hc         1 Q73       0.067200
@<TRIPOS>BOND
     1     1     2 1   
     2     2     3 1   
     3     2     4 1   
     4     4     5 1   
     5     4    36 1   
     6     4    37 1   
     7     5     6 1   
     8     5     7 1   
     9     5    38 1   
    10     6    39 1   
    11     6    40 1   
    12     7     8 1   
    13     7    41 1   
    14     7    42 1   
    15     8     9 1   
    16     8    10 1   
    17     8    43 1   
    18     9    44 1   
    19    10    11 2   
    20    10    45 1   
    21    11    12 1   
    22    11    46 1   
    23    12    13 1   
    24    12    14 2   
    25    13    47 1   
    26    13    48 1   
    27    13    49 1   
    28    14    15 1   
    29    14    50 1   
    30    15    16 1   
    31    15    17 1   
    32    15    51 1   
    33    16    52 1   
    34    16    53 1   
    35    16    54 1   
    36    17    18 1   
    37    17    55 1   
    38    17    56 1   
    39    18    19 1   
    40    18    20 2   
    41    19    57 1   
    42    19    58 1   
    43    19    59 1   
    44    20    21 1   
    45    20    60 1   
    46    21    22 2   
    47    21    61 1   
    48    22    23 1   
    49    22    62 1   
    50    23    24 1   
    51    23    25 1   
    52    23    63 1   
    53    24    64 1   
    54    24    65 1   
    55    25    26 1   
    56    25    35 1   
    57    25    66 1   
    58    26    27 1   
    59    27    28 1   
    60    27    31 1   
    61    27    67 1   
    62    28    29 2   
    63    28    68 1   
    64    29    30 1   
    65    29    69 1   
    66    30    70 1   
    67    30    71 1   
    68    30    72 1   
    69    31    32 1   
    70    31    33 1   
    71    31    73 1   
    72    32    74 1   
    73    32    75 1   
    74    32    76 1   
    75    33    34 1   
    76    33    35 1   
    77    33    77 1   
    78    34    78 1   
    79    35    79 1   
    80    35    80 1   
@<TRIPOS>SUBSTRUCTURE
     1 Q73         1 TEMP              0 ****  ****    0 ROOT
