@<TRIPOS>MOLECULE
Q74
   35    38     1     0     0
SMALL
No Charge or Current Charge


@<TRIPOS>ATOM
      1 F1          -6.4970     1.6640     0.1310 f          1 Q74      -0.165000
      2 C2          -5.3230     0.9940     0.1730 ca         1 Q74       0.141000
      3 C3          -4.2920     1.3080    -0.7390 ca         1 Q74       0.162000
      4 F4          -4.4760     2.2850    -1.6620 f          1 Q74      -0.143000
      5 C5          -5.1430    -0.0180     1.1350 ca         1 Q74      -0.183000
      6 C6          -3.9280    -0.7180     1.1850 ca         1 Q74       0.226000
      7 F7          -3.7410    -1.6910     2.1020 f          1 Q74      -0.162000
      8 C8          -2.9140    -0.3950     0.2730 ca         1 Q74      -0.269000
      9 C9          -3.0710     0.5990    -0.6820 ca         1 Q74       0.107400
     10 N10         -1.9850     0.8260    -1.5330 nc         1 Q74      -0.547100
     11 S11         -1.3360    -1.1590     0.1860 ss         1 Q74       0.143800
     12 C12         -1.0230    -0.0380    -1.1630 cd         1 Q74       0.422200
     13 C13          0.3020    -0.0650    -1.8870 c3         1 Q74      -0.014500
     14 C14          1.5030     0.0000    -0.9720 cc         1 Q74      -0.228400
     15 C15          2.2280    -1.1090    -0.4130 ca         1 Q74      -0.128800
     16 C16          2.0110    -2.4830    -0.5810 ca         1 Q74      -0.053000
     17 C17          2.1250     1.1400    -0.4820 cd         1 Q74      -0.082100
     18 N18          3.2000     0.7590     0.3510 na         1 Q74      -0.112400
     19 C19          4.1380     1.6370     1.0790 c3         1 Q74      -0.096400
     20 C20          5.5700     1.6220     0.5120 c          1 Q74       0.717000
     21 O21          6.4900     1.3590     1.2730 o          1 Q74      -0.708500
     22 O22          5.7300     1.9140    -0.6660 o          1 Q74      -0.708500
     23 C23          3.2490    -0.6310     0.3840 ca         1 Q74       0.383500
     24 N24          4.0940    -1.4520     1.0530 nb         1 Q74      -0.643000
     25 C25          3.9070    -2.7860     0.9080 ca         1 Q74       0.333900
     26 C26          2.8860    -3.3400     0.1080 ca         1 Q74      -0.207000
     27 H5          -5.9390    -0.2570     1.8350 ha         1 Q74       0.146000
     28 H13          0.3520    -0.9710    -2.5010 hc         1 Q74       0.072700
     29 H13A         0.3490     0.7700    -2.5970 hc         1 Q74       0.072700
     30 H16          1.2100    -2.8700    -1.2060 ha         1 Q74       0.100000
     31 H17          1.8860     2.1850    -0.6600 h4         1 Q74       0.214000
     32 H19          3.7700     2.6680     1.0410 h1         1 Q74       0.050700
     33 H19A         4.1710     1.3240     2.1300 h1         1 Q74       0.050700
     34 H25          4.5950    -3.4310     1.4510 h4         1 Q74       0.004100
     35 H26          2.7810    -4.4180     0.0290 ha         1 Q74       0.102000
@<TRIPOS>BOND
     1     1     2 1   
     2     2     3 ar  
     3     2     5 ar  
     4     3     4 1   
     5     3     9 ar  
     6     5     6 ar  
     7     5    27 1   
     8     6     7 1   
     9     6     8 ar  
    10     8     9 ar  
    11     8    11 1   
    12     9    10 1   
    13    10    12 2   
    14    11    12 1   
    15    12    13 1   
    16    13    14 1   
    17    13    28 1   
    18    13    29 1   
    19    14    15 1   
    20    14    17 2   
    21    15    16 ar  
    22    15    23 ar  
    23    16    26 ar  
    24    16    30 1   
    25    17    18 1   
    26    17    31 1   
    27    18    19 1   
    28    18    23 1   
    29    19    20 1   
    30    19    32 1   
    31    19    33 1   
    32    20    21 1   
    33    20    22 1   
    34    23    24 ar  
    35    24    25 ar  
    36    25    26 ar  
    37    25    34 1   
    38    26    35 1   
@<TRIPOS>SUBSTRUCTURE
     1 Q74         1 TEMP              0 ****  ****    0 ROOT
