@<TRIPOS>MOLECULE
Q74
   35    38     1     0     0
SMALL
abcg2


@<TRIPOS>ATOM
      1 F1          -6.5390     1.2860    -0.0880 f          1 Q74      -0.165000
      2 C2          -5.3150     0.7720     0.0500 ca         1 Q74       0.141000
      3 C3          -4.3410     1.1210    -0.8590 ca         1 Q74       0.162000
      4 F4          -4.6120     1.9600    -1.8570 f          1 Q74      -0.143000
      5 C5          -5.0660    -0.0990     1.1050 ca         1 Q74      -0.183000
      6 C6          -3.8020    -0.6240     1.2420 ca         1 Q74       0.226000
      7 F7          -3.5240    -1.4610     2.2430 f          1 Q74      -0.162000
      8 C8          -2.8040    -0.2920     0.3440 ca         1 Q74      -0.269000
      9 C9          -3.0650     0.5850    -0.7180 ca         1 Q74       0.107400
     10 N10         -1.9960     0.8400    -1.5340 nc         1 Q74      -0.547100
     11 S11         -1.1530    -0.7860     0.2920 ss         1 Q74       0.143800
     12 C12         -0.9520     0.1990    -1.1430 cd         1 Q74       0.422200
     13 C13          0.3690     0.2260    -1.8440 c3         1 Q74      -0.014500
     14 C14          1.5330     0.1100    -0.9180 cc         1 Q74      -0.228400
     15 C15          2.1190    -1.0930    -0.4180 ca         1 Q74      -0.128800
     16 C16          1.9130    -2.4600    -0.5860 ca         1 Q74      -0.053000
     17 C17          2.2340     1.1340    -0.3430 cd         1 Q74      -0.082100
     18 N18          3.1950     0.6550     0.5000 na         1 Q74      -0.112400
     19 C19          4.2200     1.4360     1.1410 c3         1 Q74      -0.096400
     20 C20          5.4910     1.6240     0.2800 c          1 Q74       0.717000
     21 O21          6.4010     2.2580     0.8470 o          1 Q74      -0.708500
     22 O22          5.4840     1.1450    -0.8640 o          1 Q74      -0.708500
     23 C23          3.1610    -0.7030     0.4570 ca         1 Q74       0.383500
     24 N24          3.9620    -1.5130     1.1280 nb         1 Q74      -0.643000
     25 C25          3.7420    -2.8070     0.9440 ca         1 Q74       0.333900
     26 C26          2.7440    -3.3220     0.1080 ca         1 Q74      -0.207000
     27 H5          -5.8560    -0.3520     1.8000 ha         1 Q74       0.146000
     28 H13          0.3800    -0.5980    -2.5660 hc         1 Q74       0.072700
     29 H13A         0.4120     1.1460    -2.4280 hc         1 Q74       0.072700
     30 H16          1.1330    -2.8450    -1.2330 ha         1 Q74       0.100000
     31 H17          2.1030     2.1980    -0.4710 h4         1 Q74       0.214000
     32 H19          3.8010     2.4120     1.3950 h1         1 Q74       0.050700
     33 H19A         4.4860     0.9540     2.0830 h1         1 Q74       0.050700
     34 H25          4.3890    -3.4860     1.4860 h4         1 Q74       0.004100
     35 H26          2.6320    -4.3940     0.0160 ha         1 Q74       0.102000
@<TRIPOS>BOND
     1     1     2 1   
     2     2     3 ar  
     3     2     5 ar  
     4     3     4 1   
     5     3     9 ar  
     6     5     6 ar  
     7     5    27 1   
     8     6     7 1   
     9     6     8 ar  
    10     8     9 ar  
    11     8    11 1   
    12     9    10 1   
    13    10    12 2   
    14    11    12 1   
    15    12    13 1   
    16    13    14 1   
    17    13    28 1   
    18    13    29 1   
    19    14    15 1   
    20    14    17 2   
    21    15    16 ar  
    22    15    23 ar  
    23    16    26 ar  
    24    16    30 1   
    25    17    18 1   
    26    17    31 1   
    27    18    19 1   
    28    18    23 1   
    29    19    20 1   
    30    19    32 1   
    31    19    33 1   
    32    20    21 1   
    33    20    22 1   
    34    23    24 ar  
    35    24    25 ar  
    36    25    26 ar  
    37    25    34 1   
    38    26    35 1   
@<TRIPOS>SUBSTRUCTURE
     1 Q74         1 TEMP              0 ****  ****    0 ROOT
