@<TRIPOS>MOLECULE
Q75
   18    18     1     0     0
SMALL
bcc


@<TRIPOS>ATOM
      1 N          -12.3020     6.2530    -7.9150 n8         1 Q75      -0.888800
      2 CA         -11.8740     4.9960    -8.4920 c3         1 Q75       0.041500
      3 C          -13.0630     4.0650    -8.5500 c          1 Q75       0.571900
      4 O          -13.2150     3.2050    -9.3780 o          1 Q75      -0.508100
      5 CB         -10.8320     4.3070    -7.5860 c3         1 Q75       0.007900
      6 CG          -9.5990     5.1270    -7.3960 cc         1 Q75      -0.159700
      7 CD          -8.4860     5.1700    -8.1790 cd         1 Q75       0.335200
      8 CE          -7.8430     6.6500    -6.7030 cc         1 Q75       0.406300
      9 NZ          -7.5030     6.0290    -7.7860 nd         1 Q75      -0.630000
     10 SD          -9.3890     6.2280    -6.0880 ss         1 Q75      -0.166300
     11 H1         -11.5170     6.8900    -7.8540 hn         1 Q75       0.349800
     12 H2         -12.9670     6.7070    -8.5300 hn         1 Q75       0.349800
     13 H4         -11.4450     5.0750    -9.5000 h1         1 Q75       0.050700
     14 H5         -13.7880     4.2180    -7.7280 h4         1 Q75       0.005200
     15 H6         -11.2870     4.0750    -6.6200 hc         1 Q75       0.067200
     16 H7         -10.5480     3.3590    -8.0450 hc         1 Q75       0.067200
     17 H9          -8.3510     4.5660    -9.0670 h4         1 Q75       0.044100
     18 H11         -7.2220     7.3790    -6.2000 h5         1 Q75       0.054100
@<TRIPOS>BOND
     1     1     2 1   
     2     1    11 1   
     3     1    12 1   
     4     2     3 1   
     5     2     5 1   
     6     2    13 1   
     7     3     4 2   
     8     3    14 1   
     9     5     6 1   
    10     5    15 1   
    11     5    16 1   
    12     6     7 2   
    13     6    10 1   
    14     7     9 1   
    15     7    17 1   
    16     8     9 2   
    17     8    10 1   
    18     8    18 1   
@<TRIPOS>SUBSTRUCTURE
     1 Q75         1 TEMP              0 ****  ****    0 ROOT
