@<TRIPOS>MOLECULE
Q75
   18    18     1     0     0
SMALL
No Charge or Current Charge


@<TRIPOS>ATOM
      1 N          -12.3170     6.3270    -8.0400 n8         1 Q75      -0.888800
      2 CA         -11.9040     4.9360    -8.4220 c3         1 Q75       0.041500
      3 C          -13.0860     3.9370    -8.6290 c          1 Q75       0.571900
      4 O          -13.5440     3.6460    -9.7310 o          1 Q75      -0.508100
      5 CB         -10.8750     4.3690    -7.4090 c3         1 Q75       0.007900
      6 CG          -9.6050     5.1820    -7.3190 cc         1 Q75      -0.159700
      7 CD          -8.5680     5.2180    -8.2260 cd         1 Q75       0.335200
      8 CE          -7.7650     6.6270    -6.7080 cc         1 Q75       0.406300
      9 NZ          -7.5120     6.0520    -7.8760 nd         1 Q75      -0.630000
     10 SD          -9.2790     6.2080    -5.9490 ss         1 Q75      -0.166300
     11 H1         -11.4780     6.9040    -7.9050 hn         1 Q75       0.349800
     12 H2         -12.8090     6.7720    -8.8250 hn         1 Q75       0.349800
     13 H4         -11.3960     5.0060    -9.3940 h1         1 Q75       0.050700
     14 H5         -13.5060     3.4920    -7.6990 h4         1 Q75       0.005200
     15 H6         -11.3440     4.2940    -6.4200 hc         1 Q75       0.067200
     16 H7         -10.6180     3.3420    -7.7010 hc         1 Q75       0.067200
     17 H9          -8.5250     4.6640    -9.1550 h4         1 Q75       0.044100
     18 H11         -7.1010     7.3230    -6.2100 h5         1 Q75       0.054100
@<TRIPOS>BOND
     1     1     2 1   
     2     1    11 1   
     3     1    12 1   
     4     2     3 1   
     5     2     5 1   
     6     2    13 1   
     7     3     4 2   
     8     3    14 1   
     9     5     6 1   
    10     5    15 1   
    11     5    16 1   
    12     6     7 2   
    13     6    10 1   
    14     7     9 1   
    15     7    17 1   
    16     8     9 2   
    17     8    10 1   
    18     8    18 1   
@<TRIPOS>SUBSTRUCTURE
     1 Q75         1 TEMP              0 ****  ****    0 ROOT
