@<TRIPOS>MOLECULE
Q76
   24    24     1     0     0
SMALL
No Charge or Current Charge


@<TRIPOS>ATOM
      1 N1         -41.6660   -48.7290    -2.2770 ns         1 Q76      -0.401100
      2 N3         -42.5900   -46.4290    -2.0760 na         1 Q76      -0.037200
      3 C4         -43.7040   -48.0140    -1.0630 cc         1 Q76      -0.185000
      4 C5         -44.3190   -46.7630    -0.8810 cc         1 Q76       0.159300
      5 C6         -45.5970   -46.6000    -0.0700 c3         1 Q76       0.280700
      6 N          -39.5730   -51.6770    -1.7910 n8         1 Q76      -0.980200
      7 C          -40.8570   -51.6990    -3.9170 c3         1 Q76      -0.088100
      8 O          -42.4440   -50.6990    -1.3790 o          1 Q76      -0.562100
      9 C1         -40.3970   -50.8350    -2.7230 c3         1 Q76       0.098500
     10 C2         -41.6210   -50.1000    -2.0610 c          1 Q76       0.564100
     11 C3         -42.5980   -47.8050    -1.8260 cd         1 Q76       0.004600
     12 F          -45.4270   -47.0120     1.2070 f          1 Q76      -0.106000
     13 F1         -46.0210   -45.3150    -0.0190 f          1 Q76      -0.106000
     14 F2         -46.6090   -47.3310    -0.5920 f          1 Q76      -0.106000
     15 N2         -43.6710   -45.7760    -1.4820 nd         1 Q76      -0.463800
     16 H6         -40.9000   -48.3890    -2.8480 hn         1 Q76       0.323500
     17 H8         -41.8970   -45.9200    -2.6220 hn         1 Q76       0.375000
     18 H7         -44.0730   -48.9490    -0.6560 ha         1 Q76       0.184000
     19 H9         -40.1930   -52.3450    -1.3130 hn         1 Q76       0.413500
     20 H1         -41.3860   -51.0820    -4.6540 hc         1 Q76       0.052033
     21 H          -39.9980   -52.1610    -4.4180 hc         1 Q76       0.052033
     22 H2         -41.5350   -52.4950    -3.5880 hc         1 Q76       0.052033
     23 H3         -39.7320   -50.0570    -3.1230 h1         1 Q76       0.065700
     24 H5         -39.2260   -51.0940    -1.0170 hn         1 Q76       0.413500
@<TRIPOS>BOND
     1     1    10 1   
     2     1    11 1   
     3     1    16 1   
     4     2    11 1   
     5     2    15 1   
     6     2    17 1   
     7     3     4 1   
     8     3    11 2   
     9     3    18 1   
    10     4     5 1   
    11     4    15 2   
    12     5    12 1   
    13     5    13 1   
    14     5    14 1   
    15     6     9 1   
    16     6    19 1   
    17     6    24 1   
    18     7     9 1   
    19     7    20 1   
    20     7    21 1   
    21     7    22 1   
    22     8    10 2   
    23     9    10 1   
    24     9    23 1   
@<TRIPOS>SUBSTRUCTURE
     1 Q76         1 TEMP              0 ****  ****    0 ROOT
