@<TRIPOS>MOLECULE
Q76
   24    24     1     0     0
SMALL
abcg2


@<TRIPOS>ATOM
      1 N1         -41.6250   -48.7750    -2.2520 ns         1 Q76      -0.401100
      2 N3         -42.6590   -46.6360    -2.1390 na         1 Q76      -0.037200
      3 C4         -43.7210   -48.1640    -0.9660 cc         1 Q76      -0.185000
      4 C5         -44.3410   -46.9030    -0.9010 cc         1 Q76       0.159300
      5 C6         -45.5520   -46.5390    -0.1140 c3         1 Q76       0.280700
      6 N          -39.7470   -51.8820    -1.8360 n8         1 Q76      -0.980200
      7 C          -40.8430   -51.3640    -3.9670 c3         1 Q76      -0.088100
      8 O          -42.2310   -50.6650    -1.1430 o          1 Q76      -0.562100
      9 C1         -40.3270   -50.8110    -2.6350 c3         1 Q76       0.098500
     10 C2         -41.4820   -50.0960    -1.9220 c          1 Q76       0.564100
     11 C3         -42.6270   -47.9450    -1.7880 cd         1 Q76       0.004600
     12 F          -45.2440   -46.0610     1.1190 f          1 Q76      -0.106000
     13 F1         -46.2920   -45.5880    -0.7150 f          1 Q76      -0.106000
     14 F2         -46.3470   -47.6120     0.0820 f          1 Q76      -0.106000
     15 N2         -43.7040   -45.9770    -1.6080 nd         1 Q76      -0.463800
     16 H6         -40.9560   -48.3750    -2.8960 hn         1 Q76       0.323500
     17 H8         -42.0140   -46.1480    -2.7430 hn         1 Q76       0.375000
     18 H7         -44.0140   -49.0840    -0.5010 ha         1 Q76       0.184000
     19 H9         -40.4750   -52.5440    -1.5840 hn         1 Q76       0.413500
     20 H1         -41.2600   -50.5710    -4.5900 hc         1 Q76       0.052033
     21 H          -40.0220   -51.8380    -4.5050 hc         1 Q76       0.052033
     22 H2         -41.6210   -52.1090    -3.7880 hc         1 Q76       0.052033
     23 H3         -39.5420   -50.0780    -2.8350 h1         1 Q76       0.065700
     24 H5         -39.3890   -51.5100    -0.9620 hn         1 Q76       0.413500
@<TRIPOS>BOND
     1     1    10 1   
     2     1    11 1   
     3     1    16 1   
     4     2    11 1   
     5     2    15 1   
     6     2    17 1   
     7     3     4 1   
     8     3    11 2   
     9     3    18 1   
    10     4     5 1   
    11     4    15 2   
    12     5    12 1   
    13     5    13 1   
    14     5    14 1   
    15     6     9 1   
    16     6    19 1   
    17     6    24 1   
    18     7     9 1   
    19     7    20 1   
    20     7    21 1   
    21     7    22 1   
    22     8    10 2   
    23     9    10 1   
    24     9    23 1   
@<TRIPOS>SUBSTRUCTURE
     1 Q76         1 TEMP              0 ****  ****    0 ROOT
