@<TRIPOS>MOLECULE
Q77
   25    26     1     0     0
SMALL
abcg2


@<TRIPOS>ATOM
      1 C14          3.9690     1.4270    -0.2210 c3         1 Q77      -0.045800
      2 C15          1.6900    -3.0330     0.1830 c3         1 Q77      -0.052800
      3 C01          2.6990     0.6410    -0.0870 ca         1 Q77      -0.109300
      4 C02          2.7320    -0.7520     0.0100 ca         1 Q77      -0.027000
      5 C03          1.5970    -1.5390     0.1160 ca         1 Q77      -0.127300
      6 C04          0.3510    -0.8960     0.1440 ca         1 Q77       0.075000
      7 C05          0.3160     0.4910     0.0740 ca         1 Q77      -0.328500
      8 C06          1.4630     1.2630    -0.0530 ca         1 Q77       0.016000
      9 C08         -2.0640    -1.2420    -0.1830 c          1 Q77       0.633000
     10 N07         -0.8210    -1.6370     0.2200 ns         1 Q77      -0.159000
     11 N09         -2.1660     0.1050    -0.4920 ns         1 Q77      -0.572300
     12 O11         -2.9950    -2.0060    -0.3030 o          1 Q77      -0.530000
     13 O13         -1.5650     1.2860     1.6980 o          1 Q77      -0.523500
     14 S10         -1.2370     1.2590     0.2850 sy         1 Q77       1.194300
     15 H141         4.5960     1.3160     0.6640 hc         1 Q77       0.047033
     16 H143         4.5530     1.0850    -1.0750 hc         1 Q77       0.047033
     17 H142         3.7680     2.4890    -0.3550 hc         1 Q77       0.047033
     18 H153         1.2840    -3.4250     1.1190 hc         1 Q77       0.049033
     19 H152         1.1470    -3.5090    -0.6360 hc         1 Q77       0.049033
     20 H151         2.7270    -3.3560     0.1200 hc         1 Q77       0.049033
     21 H021         3.6950    -1.2510    -0.0160 ha         1 Q77       0.118000
     22 H061         1.3890     2.3410    -0.1190 ha         1 Q77       0.136000
     23 H071        -0.7410    -2.6240     0.4180 hn         1 Q77       0.185000
     24 H1          -3.0830     0.4210    -0.7970 hn         1 Q77       0.354500
     25 O12         -1.3480     2.4850    -0.4780 o          1 Q77      -0.523500
@<TRIPOS>BOND
     1     1     3 1   
     2     1    15 1   
     3     1    16 1   
     4     1    17 1   
     5     2     5 1   
     6     2    18 1   
     7     2    19 1   
     8     2    20 1   
     9     3     4 ar  
    10     3     8 ar  
    11     4     5 ar  
    12     4    21 1   
    13     5     6 ar  
    14     6     7 ar  
    15     6    10 1   
    16     7     8 ar  
    17     7    14 1   
    18     8    22 1   
    19     9    10 1   
    20     9    11 1   
    21     9    12 2   
    22    10    23 1   
    23    11    14 1   
    24    11    24 1   
    25    13    14 2   
    26    14    25 2   
@<TRIPOS>SUBSTRUCTURE
     1 Q77         1 TEMP              0 ****  ****    0 ROOT
