@<TRIPOS>MOLECULE
Q77
   25    26     1     0     0
SMALL
No Charge or Current Charge


@<TRIPOS>ATOM
      1 C14          4.0230     1.4480    -0.0110 c3         1 Q77      -0.045800
      2 C15          1.7210    -3.0750     0.0020 c3         1 Q77      -0.052800
      3 C01          2.7420     0.6270    -0.0060 ca         1 Q77      -0.109300
      4 C02          2.8010    -0.7790    -0.0060 ca         1 Q77      -0.027000
      5 C03          1.6220    -1.5510     0.0020 ca         1 Q77      -0.127300
      6 C04          0.3660    -0.9030     0.0110 ca         1 Q77       0.075000
      7 C05          0.3100     0.4990     0.0130 ca         1 Q77      -0.328500
      8 C06          1.4900     1.2670     0.0050 ca         1 Q77       0.016000
      9 C08         -2.1470    -1.2610     0.0290 c          1 Q77       0.633000
     10 N07         -0.8260    -1.6640     0.0190 ns         1 Q77      -0.159000
     11 N09         -2.3950     0.0710     0.0320 ns         1 Q77      -0.572300
     12 O11         -3.0670    -2.0600     0.0340 o          1 Q77      -0.530000
     13 O13         -1.4360     2.0120     1.3010 o          1 Q77      -0.523500
     14 S10         -1.2780     1.3040     0.0270 sy         1 Q77       1.194300
     15 H141         4.3530     1.6620     1.0120 hc         1 Q77       0.047033
     16 H143         4.8360     0.9190    -0.5220 hc         1 Q77       0.047033
     17 H142         3.8830     2.4070    -0.5260 hc         1 Q77       0.047033
     18 H153         1.2450    -3.5020     0.8920 hc         1 Q77       0.049033
     19 H152         1.2320    -3.5020    -0.8820 hc         1 Q77       0.049033
     20 H151         2.7630    -3.4160    -0.0060 hc         1 Q77       0.049033
     21 H021         3.7710    -1.2730    -0.0110 ha         1 Q77       0.118000
     22 H061         1.4380     2.3550     0.0090 ha         1 Q77       0.136000
     23 H071        -0.6920    -2.6660     0.0170 hn         1 Q77       0.185000
     24 H1          -3.3430     0.4040     0.0400 hn         1 Q77       0.354500
     25 O12         -1.4550     2.0180    -1.2410 o          1 Q77      -0.523500
@<TRIPOS>BOND
     1     1     3 1   
     2     1    15 1   
     3     1    16 1   
     4     1    17 1   
     5     2     5 1   
     6     2    18 1   
     7     2    19 1   
     8     2    20 1   
     9     3     4 ar  
    10     3     8 ar  
    11     4     5 ar  
    12     4    21 1   
    13     5     6 ar  
    14     6     7 ar  
    15     6    10 1   
    16     7     8 ar  
    17     7    14 1   
    18     8    22 1   
    19     9    10 1   
    20     9    11 1   
    21     9    12 2   
    22    10    23 1   
    23    11    14 1   
    24    11    24 1   
    25    13    14 2   
    26    14    25 2   
@<TRIPOS>SUBSTRUCTURE
     1 Q77         1 TEMP              0 ****  ****    0 ROOT
