@<TRIPOS>MOLECULE
Q78
   19    19     1     0     0
SMALL
bcc


@<TRIPOS>ATOM
      1 N          -12.6320     5.8410    -6.8650 n8         1 Q78      -0.896800
      2 CA         -12.3580     4.8400    -7.8920 c3         1 Q78       0.011500
      3 C          -13.6560     4.2750    -8.5500 c          1 Q78       0.914600
      4 CB         -11.5700     3.6550    -7.3240 c3         1 Q78       0.002900
      5 CG         -10.2130     3.9830    -6.7710 cc         1 Q78      -0.037300
      6 CD1         -9.6160     3.2450    -5.7910 cd         1 Q78      -0.132100
      7 CD2         -9.3610     5.0370    -7.2180 cc         1 Q78      -0.122000
      8 O1         -13.4810     3.4020    -9.4240 o          1 Q78      -0.832300
      9 CE          -8.1550     5.0550    -6.5840 cd         1 Q78      -0.133100
     10 SE          -8.0370     3.8040    -5.4200 ss         1 Q78      -0.193800
     11 OXT        -14.7420     4.7380    -8.1490 o          1 Q78      -0.832300
     12 H1         -12.2550     6.7370    -7.1430 hn         1 Q78       0.331300
     13 H2         -13.6420     5.9590    -6.8520 hn         1 Q78       0.331300
     14 H4         -11.7700     5.2790    -8.7060 h1         1 Q78       0.014700
     15 H5         -12.1720     3.1840    -6.5380 hc         1 Q78       0.058700
     16 H6         -11.4530     2.9050    -8.1000 hc         1 Q78       0.058700
     17 H7         -10.0110     2.3740    -5.2880 h4         1 Q78       0.158000
     18 H8          -9.6180     5.7380    -7.9960 ha         1 Q78       0.150000
     19 H9          -7.3420     5.7480    -6.7290 h4         1 Q78       0.148000
@<TRIPOS>BOND
     1     1     2 1   
     2     1    12 1   
     3     1    13 1   
     4     2     3 1   
     5     2     4 1   
     6     2    14 1   
     7     3     8 1   
     8     3    11 1   
     9     4     5 1   
    10     4    15 1   
    11     4    16 1   
    12     5     6 2   
    13     5     7 1   
    14     6    10 1   
    15     6    17 1   
    16     7     9 2   
    17     7    18 1   
    18     9    10 1   
    19     9    19 1   
@<TRIPOS>SUBSTRUCTURE
     1 Q78         1 TEMP              0 ****  ****    0 ROOT
