@<TRIPOS>MOLECULE
Q78
   19    19     1     0     0
SMALL
No Charge or Current Charge


@<TRIPOS>ATOM
      1 N          -12.6370     5.9520    -6.8650 n8         1 Q78      -0.896800
      2 CA         -12.2560     4.9800    -7.9630 c3         1 Q78       0.011500
      3 C          -13.4030     4.5620    -8.9820 c          1 Q78       0.914600
      4 CB         -11.5930     3.7050    -7.3730 c3         1 Q78       0.002900
      5 CG         -10.2990     3.9580    -6.6370 cc         1 Q78      -0.037300
      6 CD1        -10.1080     3.8770    -5.2800 cd         1 Q78      -0.132100
      7 CD2         -9.1030     4.2960    -7.3270 cc         1 Q78      -0.122000
      8 O1         -13.2350     4.7780   -10.1780 o          1 Q78      -0.832300
      9 CE          -8.0090     4.4800    -6.5240 cd         1 Q78      -0.133100
     10 SE          -8.4300     4.2290    -4.8260 ss         1 Q78      -0.193800
     11 OXT        -14.4640     4.1370    -8.5350 o          1 Q78      -0.832300
     12 H1         -13.0050     6.8110    -7.2890 hn         1 Q78       0.331300
     13 H2         -13.4370     5.5680    -6.3500 hn         1 Q78       0.331300
     14 H4         -11.4880     5.4900    -8.5610 h1         1 Q78       0.014700
     15 H5         -12.3070     3.2010    -6.7110 hc         1 Q78       0.058700
     16 H6         -11.3970     3.0030    -8.1930 hc         1 Q78       0.058700
     17 H7         -10.8430     3.6340    -4.5210 h4         1 Q78       0.158000
     18 H8          -9.0730     4.3980    -8.4080 ha         1 Q78       0.150000
     19 H9          -6.9980     4.7400    -6.8170 h4         1 Q78       0.148000
@<TRIPOS>BOND
     1     1     2 1   
     2     1    12 1   
     3     1    13 1   
     4     2     3 1   
     5     2     4 1   
     6     2    14 1   
     7     3     8 1   
     8     3    11 1   
     9     4     5 1   
    10     4    15 1   
    11     4    16 1   
    12     5     6 2   
    13     5     7 1   
    14     6    10 1   
    15     6    17 1   
    16     7     9 2   
    17     7    18 1   
    18     9    10 1   
    19     9    19 1   
@<TRIPOS>SUBSTRUCTURE
     1 Q78         1 TEMP              0 ****  ****    0 ROOT
