@<TRIPOS>MOLECULE
Q7A
   19    20     1     0     0
SMALL
abcg2


@<TRIPOS>ATOM
      1 O11         -1.1830    -3.0820    -0.2400 o          1 Q7A      -0.517000
      2 O12         -2.2170     0.4160     1.6570 o          1 Q7A      -0.520000
      3 O13         -2.8200     1.4060    -0.5560 o          1 Q7A      -0.520000
      4 C01          1.4600     2.5940    -0.1870 ca         1 Q7A      -0.145000
      5 C02          2.4010     1.5830    -0.0450 ca         1 Q7A      -0.014000
      6 C03          2.0020     0.2680     0.1070 ca         1 Q7A       0.049000
      7 C04          0.6480    -0.0740     0.1340 ca         1 Q7A       0.088000
      8 C05         -0.2700     0.9680     0.0180 ca         1 Q7A      -0.330500
      9 C06          0.1120     2.2890    -0.1560 ca         1 Q7A       0.026000
     10 C08         -0.9720    -1.8960    -0.1490 c          1 Q7A       0.636000
     11 N07          0.2330    -1.3850     0.2550 ns         1 Q7A      -0.154000
     12 N09         -1.9170    -0.9430    -0.4900 ns         1 Q7A      -0.575300
     13 S10         -1.9570     0.5610     0.2390 sy         1 Q7A       1.198300
     14 H011         1.7840     3.6160    -0.3200 ha         1 Q7A       0.132000
     15 H021         3.4570     1.8170    -0.0660 ha         1 Q7A       0.137000
     16 H061        -0.6320     3.0670    -0.2560 ha         1 Q7A       0.141000
     17 H071         0.9330    -2.0810     0.4720 hn         1 Q7A       0.194000
     18 H1          -2.8150    -1.3010    -0.8030 hn         1 Q7A       0.356500
     19 CL14         3.1910    -0.9760     0.2510 cl         1 Q7A      -0.182000
@<TRIPOS>BOND
     1     1    10 2   
     2     2    13 2   
     3     3    13 2   
     4     4     5 ar  
     5     4     9 ar  
     6     4    14 1   
     7     5     6 ar  
     8     5    15 1   
     9     6     7 ar  
    10     6    19 1   
    11     7     8 ar  
    12     7    11 1   
    13     8     9 ar  
    14     8    13 1   
    15     9    16 1   
    16    10    11 1   
    17    10    12 1   
    18    11    17 1   
    19    12    13 1   
    20    12    18 1   
@<TRIPOS>SUBSTRUCTURE
     1 Q7A         1 TEMP              0 ****  ****    0 ROOT
