@<TRIPOS>MOLECULE
Q7A
   19    20     1     0     0
SMALL
No Charge or Current Charge


@<TRIPOS>ATOM
      1 O11         -1.1850    -3.1580    -0.0710 o          1 Q7A      -0.517000
      2 O12         -2.5930     0.9750     1.2710 o          1 Q7A      -0.520000
      3 O13         -2.5890     1.0200    -1.2720 o          1 Q7A      -0.520000
      4 C01          1.5050     2.6410     0.0350 ca         1 Q7A      -0.145000
      5 C02          2.4620     1.6110     0.0190 ca         1 Q7A      -0.014000
      6 C03          2.0500     0.2670    -0.0050 ca         1 Q7A       0.049000
      7 C04          0.6760    -0.0530    -0.0130 ca         1 Q7A       0.088000
      8 C05         -0.2730     0.9810     0.0030 ca         1 Q7A      -0.330500
      9 C06          0.1340     2.3300     0.0270 ca         1 Q7A       0.026000
     10 C08         -1.0020    -1.9530    -0.0490 c          1 Q7A       0.636000
     11 N07          0.2640    -1.4050    -0.0380 ns         1 Q7A      -0.154000
     12 N09         -2.0530    -1.0980    -0.0360 ns         1 Q7A      -0.575300
     13 S10         -2.0030     0.5650    -0.0070 sy         1 Q7A       1.198300
     14 H011         1.8250     3.6800     0.0540 ha         1 Q7A       0.132000
     15 H021         3.5220     1.8530     0.0250 ha         1 Q7A       0.137000
     16 H061        -0.6010     3.1340     0.0400 ha         1 Q7A       0.141000
     17 H071         1.0180    -2.0800    -0.0480 hn         1 Q7A       0.194000
     18 H1          -2.9910    -1.4580    -0.0440 hn         1 Q7A       0.356500
     19 Cl14         3.2720    -1.0060    -0.0260 cl         1 Q7A      -0.182000
@<TRIPOS>BOND
     1     1    10 2   
     2     2    13 2   
     3     3    13 2   
     4     4     5 ar  
     5     4     9 ar  
     6     4    14 1   
     7     5     6 ar  
     8     5    15 1   
     9     6     7 ar  
    10     6    19 1   
    11     7     8 ar  
    12     7    11 1   
    13     8     9 ar  
    14     8    13 1   
    15     9    16 1   
    16    10    11 1   
    17    10    12 1   
    18    11    17 1   
    19    12    13 1   
    20    12    18 1   
@<TRIPOS>SUBSTRUCTURE
     1 Q7A         1 TEMP              0 ****  ****    0 ROOT
