@<TRIPOS>MOLECULE
Q7B
   37    39     1     0     0
SMALL
bcc


@<TRIPOS>ATOM
      1 CAJ          8.2860    10.2500    37.3000 ca         1 Q7B      -0.118000
      2 CAI          7.4330    10.4210    38.3790 ca         1 Q7B      -0.135000
      3 CAH          6.4790    11.4370    38.3850 ca         1 Q7B      -0.109300
      4 CAT          5.5260    11.6020    39.5340 c3         1 Q7B      -0.032800
      5 CAG          6.4240    12.2730    37.2750 ca         1 Q7B      -0.135000
      6 CAL          7.2840    12.1050    36.1970 ca         1 Q7B      -0.118000
      7 CAK          8.2290    11.0850    36.1840 ca         1 Q7B      -0.021300
      8 CAM          9.1750    10.8380    35.0340 c3         1 Q7B       0.017900
      9 CAO          9.0180    11.7400    33.8350 cx         1 Q7B      -0.202000
     10 CAQ          9.5100    13.1840    33.9870 c          1 Q7B       0.947600
     11 OAS         10.1690    13.4350    35.0140 o          1 Q7B      -0.827300
     12 OAR          9.2350    13.9790    33.0660 o          1 Q7B      -0.827300
     13 CAN          9.2230    11.1190    32.4800 cx         1 Q7B      -0.108400
     14 CAP          7.8440    11.5070    32.8930 cx         1 Q7B      -0.109400
     15 CAD          6.7610    10.5350    33.1850 ca         1 Q7B      -0.001300
     16 CAC          5.4830    11.0320    33.4550 ca         1 Q7B      -0.132500
     17 CAB          4.4270    10.1850    33.7530 ca         1 Q7B      -0.133500
     18 CAA          4.6230     8.8100    33.7870 ca         1 Q7B      -0.155000
     19 CAF          5.8840     8.3000    33.5090 ca         1 Q7B      -0.133500
     20 CAE          6.9380     9.1530    33.2040 ca         1 Q7B      -0.132500
     21 H1           9.0140     9.4460    37.3250 ha         1 Q7B       0.134500
     22 H2           7.5090     9.7530    39.2290 ha         1 Q7B       0.110000
     23 H3           4.6260    10.9990    39.3900 hc         1 Q7B       0.026367
     24 H4           5.9750    11.2880    40.4760 hc         1 Q7B       0.026367
     25 H5           5.2040    12.6370    39.6430 hc         1 Q7B       0.026367
     26 H6           5.6980    13.0780    37.2490 ha         1 Q7B       0.110000
     27 H7           7.1950    12.7730    35.3500 ha         1 Q7B       0.134500
     28 H8           9.0650     9.7930    34.7340 hc         1 Q7B       0.041200
     29 H9          10.2020    10.9210    35.3980 hc         1 Q7B       0.041200
     30 H11          9.4840    10.0670    32.4440 hc         1 Q7B       0.057200
     31 H12          9.6980    11.7140    31.7100 hc         1 Q7B       0.057200
     32 H13          7.4790    12.4250    32.4450 hc         1 Q7B       0.106700
     33 H14          5.3210    12.1030    33.4360 ha         1 Q7B       0.129000
     34 H15          3.4480    10.6000    33.9590 ha         1 Q7B       0.112500
     35 H16          3.8020     8.1450    34.0200 ha         1 Q7B       0.111000
     36 H17          6.0500     7.2300    33.5200 ha         1 Q7B       0.112500
     37 H18          7.9050     8.7240    32.9760 ha         1 Q7B       0.129000
@<TRIPOS>BOND
     1     1     2 ar  
     2     1     7 ar  
     3     1    21 1   
     4     2     3 ar  
     5     2    22 1   
     6     3     4 1   
     7     3     5 ar  
     8     4    23 1   
     9     4    24 1   
    10     4    25 1   
    11     5     6 ar  
    12     5    26 1   
    13     6     7 ar  
    14     6    27 1   
    15     7     8 1   
    16     8     9 1   
    17     8    28 1   
    18     8    29 1   
    19     9    10 1   
    20     9    13 1   
    21     9    14 1   
    22    10    11 1   
    23    10    12 1   
    24    13    14 1   
    25    13    30 1   
    26    13    31 1   
    27    14    15 1   
    28    14    32 1   
    29    15    16 ar  
    30    15    20 ar  
    31    16    17 ar  
    32    16    33 1   
    33    17    18 ar  
    34    17    34 1   
    35    18    19 ar  
    36    18    35 1   
    37    19    20 ar  
    38    19    36 1   
    39    20    37 1   
@<TRIPOS>SUBSTRUCTURE
     1 Q7B         1 TEMP              0 ****  ****    0 ROOT
