@<TRIPOS>MOLECULE
Q7B
   37    39     1     0     0
SMALL
No Charge or Current Charge


@<TRIPOS>ATOM
      1 CAJ          7.2870    10.3440    36.6100 ca         1 Q7B      -0.100000
      2 CAI          6.3380    10.5760    37.6200 ca         1 Q7B      -0.117000
      3 CAH          6.2680    11.8300    38.2540 ca         1 Q7B      -0.109300
      4 CAT          5.2420    12.0800    39.3490 c3         1 Q7B      -0.032800
      5 CAG          7.1640    12.8450    37.8740 ca         1 Q7B      -0.117000
      6 CAL          8.1120    12.6140    36.8620 ca         1 Q7B      -0.100000
      7 CAK          8.1730    11.3650    36.2120 ca         1 Q7B      -0.021300
      8 CAM          9.2110    11.1050    35.1220 c3         1 Q7B       0.017900
      9 CAO          8.9130    11.7900    33.7780 cx         1 Q7B      -0.202000
     10 CAQ          9.1720    13.2920    33.7700 c          1 Q7B       0.737000
     11 OAS         10.3340    13.6720    33.7510 o          1 Q7B      -0.722000
     12 OAR          8.2140    14.0510    33.7780 o          1 Q7B      -0.722000
     13 CAN          9.2950    11.0460    32.5090 cx         1 Q7B      -0.108400
     14 CAP          7.8340    11.2580    32.8380 cx         1 Q7B      -0.109400
     15 CAD          6.8850    10.1580    33.2420 ca         1 Q7B      -0.001300
     16 CAC          5.6730    10.5020    33.8710 ca         1 Q7B      -0.114500
     17 CAB          4.7610     9.5060    34.2610 ca         1 Q7B      -0.115500
     18 CAA          5.0520     8.1540    34.0170 ca         1 Q7B      -0.137000
     19 CAF          6.2510     7.8010    33.3780 ca         1 Q7B      -0.115500
     20 CAE          7.1630     8.7980    32.9880 ca         1 Q7B      -0.114500
     21 H1           7.3270     9.3700    36.1300 ha         1 Q7B       0.116500
     22 H2           5.6570     9.7790    37.9080 ha         1 Q7B       0.092000
     23 H3           4.3340    11.4870    39.1890 hc         1 Q7B       0.026367
     24 H4           5.6480    11.8140    40.3320 hc         1 Q7B       0.026367
     25 H5           4.9430    13.1350    39.3840 hc         1 Q7B       0.026367
     26 H6           7.1290    13.8160    38.3620 ha         1 Q7B       0.092000
     27 H7           8.8010    13.4070    36.5840 ha         1 Q7B       0.116500
     28 H8           9.3080    10.0230    34.9710 hc         1 Q7B       0.041200
     29 H9          10.1970    11.4270    35.4790 hc         1 Q7B       0.041200
     30 H11          9.7250    10.0540    32.6170 hc         1 Q7B       0.057200
     31 H12          9.7100    11.6230    31.6860 hc         1 Q7B       0.057200
     32 H13          7.3230    11.9940    32.2210 hc         1 Q7B       0.106700
     33 H14          5.4450    11.5460    34.0700 ha         1 Q7B       0.111000
     34 H15          3.8320     9.7830    34.7550 ha         1 Q7B       0.094500
     35 H16          4.3480     7.3830    34.3190 ha         1 Q7B       0.093000
     36 H17          6.4750     6.7550    33.1830 ha         1 Q7B       0.094500
     37 H18          8.0810     8.5050    32.4870 ha         1 Q7B       0.111000
@<TRIPOS>BOND
     1     1     2 ar  
     2     1     7 ar  
     3     1    21 1   
     4     2     3 ar  
     5     2    22 1   
     6     3     4 1   
     7     3     5 ar  
     8     4    23 1   
     9     4    24 1   
    10     4    25 1   
    11     5     6 ar  
    12     5    26 1   
    13     6     7 ar  
    14     6    27 1   
    15     7     8 1   
    16     8     9 1   
    17     8    28 1   
    18     8    29 1   
    19     9    10 1   
    20     9    13 1   
    21     9    14 1   
    22    10    11 1   
    23    10    12 1   
    24    13    14 1   
    25    13    30 1   
    26    13    31 1   
    27    14    15 1   
    28    14    32 1   
    29    15    16 ar  
    30    15    20 ar  
    31    16    17 ar  
    32    16    33 1   
    33    17    18 ar  
    34    17    34 1   
    35    18    19 ar  
    36    18    35 1   
    37    19    20 ar  
    38    19    36 1   
    39    20    37 1   
@<TRIPOS>SUBSTRUCTURE
     1 Q7B         1 TEMP              0 ****  ****    0 ROOT
