@<TRIPOS>MOLECULE
Q7C
   32    32     1     0     0
SMALL
No Charge or Current Charge


@<TRIPOS>ATOM
      1 N1           7.6550    -1.9130    19.9910 n          1 Q7C      -0.413800
      2 C4           9.9100    -1.6120    20.9170 c5         1 Q7C      -0.100400
      3 C5          10.5720    -1.2620    22.2890 c5         1 Q7C      -0.290400
      4 C6           8.1010    -0.2950    21.8500 c5         1 Q7C      -0.312400
      5 C7           7.3790    -3.2430    19.5540 c          1 Q7C       0.601100
      6 C8           7.6560    -4.4330    20.4820 c3         1 Q7C      -0.178100
      7 O3           6.8920    -3.4610    18.4520 o          1 Q7C      -0.583100
      8 C2           7.3590    -0.8060    19.0320 c3         1 Q7C       0.102000
      9 C1           5.9490    -0.2110    19.2170 c3         1 Q7C      -0.178400
     10 C            5.7150     0.9230    18.2240 c          1 Q7C       0.608100
     11 O            5.4090     0.7390    17.0590 o          1 Q7C      -0.599100
     12 N            5.8600     2.1760    18.7040 nt         1 Q7C      -0.611000
     13 C3           8.3970    -1.7100    21.2810 c5         1 Q7C       0.142700
     14 S            9.4090    -0.0820    23.1350 s6         1 Q7C       1.067000
     15 O1           9.9400     1.2850    23.0850 o          1 Q7C      -0.507500
     16 O2           8.9590    -0.6540    24.4090 o          1 Q7C      -0.507500
     17 H1          10.3030    -2.5480    20.5020 hc         1 Q7C       0.080200
     18 H2          10.1020    -0.8320    20.1690 hc         1 Q7C       0.080200
     19 H3          10.6550    -2.1310    22.9530 h1         1 Q7C       0.110200
     20 H4          11.5470    -0.7710    22.1990 h1         1 Q7C       0.110200
     21 H5           8.2530     0.5320    21.1500 h1         1 Q7C       0.112700
     22 H6           7.1270    -0.2070    22.3440 h1         1 Q7C       0.112700
     23 H7           7.4080    -5.3920    20.0130 hc         1 Q7C       0.061367
     24 H8           8.6990    -4.4130    20.8150 hc         1 Q7C       0.061367
     25 H9           7.0940    -4.3000    21.4130 hc         1 Q7C       0.061367
     26 H10          7.4640    -1.1650    17.9990 h1         1 Q7C       0.075200
     27 H11          8.1090    -0.0120    19.1380 h1         1 Q7C       0.075200
     28 H12          5.8620     0.1670    20.2410 hc         1 Q7C       0.065200
     29 H13          5.2110    -1.0020    19.0400 hc         1 Q7C       0.065200
     30 H14          5.7110     2.9610    18.0870 hn         1 Q7C       0.312500
     31 H15          6.1050     2.3230    19.6720 hn         1 Q7C       0.312500
     32 H16          8.1940    -2.4830    22.0340 h1         1 Q7C       0.066700
@<TRIPOS>BOND
     1     1     5 1   
     2     1     8 1   
     3     1    13 1   
     4     2     3 1   
     5     2    13 1   
     6     2    17 1   
     7     2    18 1   
     8     3    14 1   
     9     3    19 1   
    10     3    20 1   
    11     4    13 1   
    12     4    14 1   
    13     4    21 1   
    14     4    22 1   
    15     5     6 1   
    16     5     7 2   
    17     6    23 1   
    18     6    24 1   
    19     6    25 1   
    20     8     9 1   
    21     8    26 1   
    22     8    27 1   
    23     9    10 1   
    24     9    28 1   
    25     9    29 1   
    26    10    11 2   
    27    10    12 1   
    28    12    30 1   
    29    12    31 1   
    30    13    32 1   
    31    14    15 2   
    32    14    16 2   
@<TRIPOS>SUBSTRUCTURE
     1 Q7C         1 TEMP              0 ****  ****    0 ROOT
