@<TRIPOS>MOLECULE
Q7C
   32    32     1     0     0
SMALL
abcg2


@<TRIPOS>ATOM
      1 N1           7.7050    -1.9410    20.0230 n          1 Q7C      -0.413800
      2 C4           9.9420    -1.8660    21.1160 c5         1 Q7C      -0.100400
      3 C5          10.5530    -1.1730    22.3210 c5         1 Q7C      -0.290400
      4 C6           7.9780    -0.6820    22.1800 c5         1 Q7C      -0.312400
      5 C7           7.2800    -3.1110    19.4780 c          1 Q7C       0.601100
      6 C8           7.4080    -4.3720    20.3010 c3         1 Q7C      -0.178100
      7 O3           6.8040    -3.1430    18.3530 o          1 Q7C      -0.583100
      8 C2           7.6450    -0.7380    19.2040 c3         1 Q7C       0.102000
      9 C1           6.2360    -0.1520    19.1200 c3         1 Q7C      -0.178400
     10 C            6.2270     1.1740    18.3910 c          1 Q7C       0.608100
     11 O            6.9110     1.3640    17.3950 o          1 Q7C      -0.599100
     12 N            5.4120     2.1080    18.9040 nt         1 Q7C      -0.611000
     13 C3           8.4010    -1.8770    21.2930 c5         1 Q7C       0.142700
     14 S            9.4820     0.2490    22.5150 s6         1 Q7C       1.067000
     15 O1           9.7310     1.1560    21.3920 o          1 Q7C      -0.507500
     16 O2           9.4950     0.7970    23.8660 o          1 Q7C      -0.507500
     17 H1          10.3130    -2.8860    21.0220 hc         1 Q7C       0.080200
     18 H2          10.2200    -1.3360    20.2040 hc         1 Q7C       0.080200
     19 H3          10.4850    -1.7710    23.2320 h1         1 Q7C       0.110200
     20 H4          11.5790    -0.8360    22.1780 h1         1 Q7C       0.110200
     21 H5           7.2480    -0.0070    21.7380 h1         1 Q7C       0.112700
     22 H6           7.5900    -1.0240    23.1380 h1         1 Q7C       0.112700
     23 H7           7.0510    -5.2110    19.7100 hc         1 Q7C       0.061367
     24 H8           8.4390    -4.5730    20.5930 hc         1 Q7C       0.061367
     25 H9           6.8110    -4.3190    21.2130 hc         1 Q7C       0.061367
     26 H10          8.0220    -0.9510    18.2050 h1         1 Q7C       0.075200
     27 H11          8.3230    -0.0030    19.6370 h1         1 Q7C       0.075200
     28 H12          5.8010    -0.0530    20.1160 hc         1 Q7C       0.065200
     29 H13          5.5870    -0.8380    18.5700 hc         1 Q7C       0.065200
     30 H14          5.3190     3.0040    18.4530 hn         1 Q7C       0.312500
     31 H15          4.8600     1.9440    19.7270 hn         1 Q7C       0.312500
     32 H16          8.1450    -2.7650    21.8630 h1         1 Q7C       0.066700
@<TRIPOS>BOND
     1     1     5 1   
     2     1     8 1   
     3     1    13 1   
     4     2     3 1   
     5     2    13 1   
     6     2    17 1   
     7     2    18 1   
     8     3    14 1   
     9     3    19 1   
    10     3    20 1   
    11     4    13 1   
    12     4    14 1   
    13     4    21 1   
    14     4    22 1   
    15     5     6 1   
    16     5     7 2   
    17     6    23 1   
    18     6    24 1   
    19     6    25 1   
    20     8     9 1   
    21     8    26 1   
    22     8    27 1   
    23     9    10 1   
    24     9    28 1   
    25     9    29 1   
    26    10    11 2   
    27    10    12 1   
    28    12    30 1   
    29    12    31 1   
    30    13    32 1   
    31    14    15 2   
    32    14    16 2   
@<TRIPOS>SUBSTRUCTURE
     1 Q7C         1 TEMP              0 ****  ****    0 ROOT
