@<TRIPOS>MOLECULE
Q7E
   22    22     1     0     0
SMALL
No Charge or Current Charge


@<TRIPOS>ATOM
      1 N1         -20.8720   -24.0310    36.9410 nc         1 Q7E      -0.530800
      2 C4         -21.7660   -25.2600    38.6990 cc         1 Q7E      -0.163000
      3 C5         -22.7010   -24.3830    38.2310 cd         1 Q7E      -0.232000
      4 C6         -22.1180   -23.6630    37.1710 cd         1 Q7E       0.242900
      5 N          -20.6610   -25.0180    37.8870 na         1 Q7E       0.113800
      6 C          -16.0890   -25.0650    40.1000 c3         1 Q7E      -0.088100
      7 O          -17.1980   -27.1250    39.4900 oh         1 Q7E      -0.669000
      8 C1         -17.0330   -25.7600    39.1000 c3         1 Q7E       0.173300
      9 C2         -18.4170   -25.0800    39.0290 c3         1 Q7E      -0.131400
     10 C3         -19.3570   -25.7010    37.9710 c3         1 Q7E       0.090600
     11 H9         -21.7820   -25.9960    39.4940 h4         1 Q7E       0.151000
     12 H10        -23.7120   -24.2590    38.6060 ha         1 Q7E       0.145000
     13 H11        -22.5660   -22.8840    36.5660 h4         1 Q7E       0.036100
     14 H2         -16.5050   -25.0900    41.1150 hc         1 Q7E       0.046700
     15 H          -15.1090   -25.5550    40.1150 hc         1 Q7E       0.046700
     16 H4         -16.3070   -27.5390    39.4690 ho         1 Q7E       0.436000
     17 H3         -16.5720   -25.7100    38.1030 h1         1 Q7E       0.030700
     18 H5         -18.8990   -25.1280    40.0130 hc         1 Q7E       0.067700
     19 H6         -18.2800   -24.0180    38.7940 hc         1 Q7E       0.067700
     20 H8         -18.8750   -25.6630    36.9860 h1         1 Q7E       0.059200
     21 H7         -19.5390   -26.7560    38.2120 h1         1 Q7E       0.059200
     22 H1         -15.9360   -24.0160    39.8180 hc         1 Q7E       0.046700
@<TRIPOS>BOND
     1     1     4 2   
     2     1     5 1   
     3     2     3 2   
     4     2     5 1   
     5     2    11 1   
     6     3     4 1   
     7     3    12 1   
     8     4    13 1   
     9     5    10 1   
    10     6     8 1   
    11     6    14 1   
    12     6    15 1   
    13     6    22 1   
    14     7     8 1   
    15     7    16 1   
    16     8     9 1   
    17     8    17 1   
    18     9    10 1   
    19     9    18 1   
    20     9    19 1   
    21    10    20 1   
    22    10    21 1   
@<TRIPOS>SUBSTRUCTURE
     1 Q7E         1 TEMP              0 ****  ****    0 ROOT
