@<TRIPOS>MOLECULE
Q7E
   22    22     1     0     0
SMALL
abcg2


@<TRIPOS>ATOM
      1 N1         -20.7050   -23.9860    37.1720 nc         1 Q7E      -0.530800
      2 C4         -21.7350   -25.4310    38.5370 cc         1 Q7E      -0.163000
      3 C5         -22.6740   -24.4880    38.1690 cd         1 Q7E      -0.232000
      4 C6         -21.9760   -23.6130    37.3170 cd         1 Q7E       0.242900
      5 N          -20.5780   -25.1010    37.9200 na         1 Q7E       0.113800
      6 C          -16.0840   -24.9210    40.0880 c3         1 Q7E      -0.088100
      7 O          -17.1160   -27.0290    39.7130 oh         1 Q7E      -0.669000
      8 C1         -16.9990   -25.7030    39.1640 c3         1 Q7E       0.173300
      9 C2         -18.3660   -25.0350    39.0290 c3         1 Q7E      -0.131400
     10 C3         -19.2880   -25.7580    38.0530 c3         1 Q7E       0.090600
     11 H9         -21.8000   -26.2970    39.1750 h4         1 Q7E       0.151000
     12 H10        -23.7080   -24.4450    38.4650 ha         1 Q7E       0.145000
     13 H11        -22.3430   -22.7380    36.8010 h4         1 Q7E       0.036100
     14 H2         -16.5200   -24.8570    41.0880 hc         1 Q7E       0.046700
     15 H          -15.1110   -25.4090    40.1640 hc         1 Q7E       0.046700
     16 H4         -17.4310   -27.6270    39.0250 ho         1 Q7E       0.436000
     17 H3         -16.5380   -25.7720    38.1720 h1         1 Q7E       0.030700
     18 H5         -18.8390   -24.9920    40.0150 hc         1 Q7E       0.067700
     19 H6         -18.2210   -24.0080    38.6850 hc         1 Q7E       0.067700
     20 H8         -18.8370   -25.8060    37.0610 h1         1 Q7E       0.059200
     21 H7         -19.4880   -26.7760    38.3850 h1         1 Q7E       0.059200
     22 H1         -15.9360   -23.9080    39.7110 hc         1 Q7E       0.046700
@<TRIPOS>BOND
     1     1     4 2   
     2     1     5 1   
     3     2     3 2   
     4     2     5 1   
     5     2    11 1   
     6     3     4 1   
     7     3    12 1   
     8     4    13 1   
     9     5    10 1   
    10     6     8 1   
    11     6    14 1   
    12     6    15 1   
    13     6    22 1   
    14     7     8 1   
    15     7    16 1   
    16     8     9 1   
    17     8    17 1   
    18     9    10 1   
    19     9    18 1   
    20     9    19 1   
    21    10    20 1   
    22    10    21 1   
@<TRIPOS>SUBSTRUCTURE
     1 Q7E         1 TEMP              0 ****  ****    0 ROOT
