@<TRIPOS>MOLECULE
Q7F
   44    46     1     0     0
SMALL
abcg2


@<TRIPOS>ATOM
      1 C10          7.3870   -12.7680    -8.2690 c3         1 Q7F       0.127500
      2 N12          7.4910   -10.4870    -9.1330 nb         1 Q7F      -0.286000
      3 C13          7.0980    -9.2060    -8.9920 ca         1 Q7F       0.431900
      4 C15          5.9350    -9.6750    -7.1350 ca         1 Q7F       0.438900
      5 C20          4.2940   -11.6600    -3.4740 ca         1 Q7F      -0.086000
      6 C21          3.2450   -11.0010    -2.8510 ca         1 Q7F      -0.137000
      7 C22          2.8460    -9.7630    -3.3400 ca         1 Q7F      -0.086000
      8 C02         10.1660   -12.6880    -6.1030 cc         1 Q7F      -0.085300
      9 C03         10.2360   -13.2530    -7.3490 cd         1 Q7F      -0.247300
     10 C05         11.1210   -14.7470    -5.5720 cd         1 Q7F      -0.238000
     11 C06         10.6760   -13.5570    -5.0900 cc         1 Q7F      -0.134000
     12 C07          9.7840   -12.6860    -8.6680 c3         1 Q7F       0.244100
     13 C09          8.4260   -14.4950    -9.5620 c3         1 Q7F       0.158100
     14 C11          7.0530   -11.3010    -8.1970 ca         1 Q7F       0.220300
     15 C18          4.5350    -9.8700    -5.0690 ca         1 Q7F       0.314000
     16 C19          4.9430   -11.1100    -4.5710 ca         1 Q7F      -0.146500
     17 C23          3.4800    -9.2040    -4.4360 ca         1 Q7F      -0.146500
     18 N08          8.4760   -13.1100    -9.1460 n3         1 Q7F      -0.710600
     19 N14          6.3200    -8.7530    -8.0150 nb         1 Q7F      -0.361000
     20 N16          6.2780   -10.9590    -7.1720 nb         1 Q7F      -0.318000
     21 N17          5.1310    -9.2150    -6.1460 nu         1 Q7F      -0.927900
     22 N24          7.5200    -8.3380    -9.9120 nv         1 Q7F      -1.067900
     23 S04         10.9280   -14.8350    -7.2690 ss         1 Q7F       0.179000
     24 H102         6.4810   -13.2600    -8.6400 h1         1 Q7F       0.062200
     25 H101         7.5130   -13.1380    -7.2400 h1         1 Q7F       0.062200
     26 H201         4.6230   -12.6220    -3.1030 ha         1 Q7F       0.112500
     27 H211         2.7480   -11.4410    -1.9970 ha         1 Q7F       0.114000
     28 H221         2.0320    -9.2260    -2.8700 ha         1 Q7F       0.112500
     29 H013         8.6130   -11.3770    -5.4010 hc         1 Q7F       0.045033
     30 H012        10.2410   -10.8380    -5.0280 hc         1 Q7F       0.045033
     31 H011         9.6150   -10.6740    -6.6620 hc         1 Q7F       0.045033
     32 H051        11.5520   -15.5690    -5.0210 h4         1 Q7F       0.149000
     33 H061        10.7130   -13.2890    -4.0420 ha         1 Q7F       0.132000
     34 H072        10.5110   -12.9290    -9.4460 h1         1 Q7F       0.067200
     35 H071         9.7840   -11.5970    -8.5910 h1         1 Q7F       0.067200
     36 H092         9.2580   -14.7050   -10.2360 h1         1 Q7F       0.033367
     37 H091         8.4720   -15.2200    -8.7380 h1         1 Q7F       0.033367
     38 H093         7.5010   -14.6800   -10.1100 h1         1 Q7F       0.033367
     39 H191         5.7560   -11.6440    -5.0350 ha         1 Q7F       0.128500
     40 H231         3.1550    -8.2400    -4.8100 ha         1 Q7F       0.128500
     41 H171         4.8790    -8.2430    -6.2570 hn         1 Q7F       0.509000
     42 H241         8.1390    -8.6360   -10.6450 hn         1 Q7F       0.508000
     43 H242         7.2870    -7.3630    -9.8400 hn         1 Q7F       0.508000
     44 C01          9.6320   -11.3250    -5.7890 c3         1 Q7F      -0.032800
@<TRIPOS>BOND
     1     1    14 1   
     2     1    18 1   
     3     1    24 1   
     4     1    25 1   
     5     2     3 ar  
     6     2    14 ar  
     7     3    19 ar  
     8     3    22 1   
     9     4    19 ar  
    10     4    20 ar  
    11     4    21 1   
    12     5     6 ar  
    13     5    16 ar  
    14     5    26 1   
    15     6     7 ar  
    16     6    27 1   
    17     7    17 ar  
    18     7    28 1   
    19     8     9 2   
    20     8    11 1   
    21     8    44 1   
    22     9    12 1   
    23     9    23 1   
    24    10    11 2   
    25    10    23 1   
    26    10    32 1   
    27    11    33 1   
    28    12    18 1   
    29    12    34 1   
    30    12    35 1   
    31    13    18 1   
    32    13    36 1   
    33    13    37 1   
    34    13    38 1   
    35    14    20 ar  
    36    15    16 ar  
    37    15    17 ar  
    38    15    21 1   
    39    16    39 1   
    40    17    40 1   
    41    21    41 1   
    42    22    42 1   
    43    22    43 1   
    44    29    44 1   
    45    30    44 1   
    46    31    44 1   
@<TRIPOS>SUBSTRUCTURE
     1 Q7F         1 TEMP              0 ****  ****    0 ROOT
