@<TRIPOS>MOLECULE
Q7F
   44    46     1     0     0
SMALL
No Charge or Current Charge


@<TRIPOS>ATOM
      1 C10          7.3470   -12.8180    -8.5010 c3         1 Q7F       0.127500
      2 N12          7.3830   -10.4610    -9.3150 nb         1 Q7F      -0.286000
      3 C13          7.0050    -9.1950    -9.1070 ca         1 Q7F       0.431900
      4 C15          5.9300    -9.6790    -7.1980 ca         1 Q7F       0.438900
      5 C20          4.4460   -11.4980    -3.2610 ca         1 Q7F      -0.086000
      6 C21          3.3510   -10.8350    -2.6850 ca         1 Q7F      -0.137000
      7 C22          2.8690    -9.6490    -3.2610 ca         1 Q7F      -0.086000
      8 C02          9.9980   -12.8080    -6.0650 cc         1 Q7F      -0.085300
      9 C03         10.2340   -13.2590    -7.3460 cd         1 Q7F      -0.247300
     10 C05         11.2150   -14.7590    -5.5850 cd         1 Q7F      -0.238000
     11 C06         10.5490   -13.6740    -5.0840 cc         1 Q7F      -0.134000
     12 C07          9.8490   -12.6160    -8.6620 c3         1 Q7F       0.244100
     13 C09          8.6690   -14.5590    -9.6680 c3         1 Q7F       0.158100
     14 C11          6.9750   -11.3310    -8.3620 ca         1 Q7F       0.220300
     15 C18          4.5710    -9.7940    -5.0120 ca         1 Q7F       0.314000
     16 C19          5.0540   -10.9780    -4.4180 ca         1 Q7F      -0.146500
     17 C23          3.4820    -9.1310    -4.4160 ca         1 Q7F      -0.146500
     18 N08          8.5920   -13.1360    -9.2670 n3         1 Q7F      -0.710600
     19 N14          6.2850    -8.7370    -8.0800 nb         1 Q7F      -0.361000
     20 N16          6.2310   -10.9860    -7.2870 nb         1 Q7F      -0.318000
     21 N17          5.1450    -9.2220    -6.1550 nu         1 Q7F      -0.927900
     22 N24          7.3870    -8.2820   -10.0240 nv         1 Q7F      -1.067900
     23 S04         11.2040   -14.7480    -7.3510 ss         1 Q7F       0.179000
     24 H102         6.4910   -13.3050    -8.9870 h1         1 Q7F       0.062200
     25 H101         7.4140   -13.2540    -7.4950 h1         1 Q7F       0.062200
     26 H201         4.8270   -12.4130    -2.8110 ha         1 Q7F       0.112500
     27 H211         2.8800   -11.2370    -1.7900 ha         1 Q7F       0.114000
     28 H221         2.0240    -9.1300    -2.8130 ha         1 Q7F       0.112500
     29 H013         8.2330   -11.8050    -5.3580 hc         1 Q7F       0.045033
     30 H012         9.7470   -11.0880    -4.7880 hc         1 Q7F       0.045033
     31 H011         9.2220   -10.8190    -6.4530 hc         1 Q7F       0.045033
     32 H051        11.7170   -15.5520    -5.0440 h4         1 Q7F       0.149000
     33 H061        10.4470   -13.4750    -4.0200 ha         1 Q7F       0.132000
     34 H072        10.6800   -12.7660    -9.3660 h1         1 Q7F       0.067200
     35 H071         9.7810   -11.5300    -8.5180 h1         1 Q7F       0.067200
     36 H092         9.5710   -14.7480   -10.2650 h1         1 Q7F       0.033367
     37 H091         8.6900   -15.2160    -8.7880 h1         1 Q7F       0.033367
     38 H093         7.7980   -14.8360   -10.2770 h1         1 Q7F       0.033367
     39 H191         5.9110   -11.4970    -4.8300 ha         1 Q7F       0.128500
     40 H231         3.1000    -8.2130    -4.8530 ha         1 Q7F       0.128500
     41 H171         4.8630    -8.2560    -6.3070 hn         1 Q7F       0.509000
     42 H241         8.1230    -8.5410   -10.6760 hn         1 Q7F       0.508000
     43 H242         7.3270    -7.2980    -9.7750 hn         1 Q7F       0.508000
     44 C01          9.2600   -11.5620    -5.6490 c3         1 Q7F      -0.032800
@<TRIPOS>BOND
     1     1    14 1   
     2     1    18 1   
     3     1    24 1   
     4     1    25 1   
     5     2     3 ar  
     6     2    14 ar  
     7     3    19 ar  
     8     3    22 1   
     9     4    19 ar  
    10     4    20 ar  
    11     4    21 1   
    12     5     6 ar  
    13     5    16 ar  
    14     5    26 1   
    15     6     7 ar  
    16     6    27 1   
    17     7    17 ar  
    18     7    28 1   
    19     8     9 2   
    20     8    11 1   
    21     8    44 1   
    22     9    12 1   
    23     9    23 1   
    24    10    11 2   
    25    10    23 1   
    26    10    32 1   
    27    11    33 1   
    28    12    18 1   
    29    12    34 1   
    30    12    35 1   
    31    13    18 1   
    32    13    36 1   
    33    13    37 1   
    34    13    38 1   
    35    14    20 ar  
    36    15    16 ar  
    37    15    17 ar  
    38    15    21 1   
    39    16    39 1   
    40    17    40 1   
    41    21    41 1   
    42    22    42 1   
    43    22    43 1   
    44    29    44 1   
    45    30    44 1   
    46    31    44 1   
@<TRIPOS>SUBSTRUCTURE
     1 Q7F         1 TEMP              0 ****  ****    0 ROOT
