@<TRIPOS>MOLECULE
Q7G
  173   182     1     0     0
SMALL
No Charge or Current Charge


@<TRIPOS>ATOM
      1 C13        121.0350   147.2300   131.8890 c2         1 Q7G      -0.106400
      2 C15        122.3300   145.1230   131.2490 c6         1 Q7G      -0.036200
      3 C16        119.7840   148.1020   131.7410 c6         1 Q7G      -0.038200
      4 C17        120.1130   149.5920   131.5030 c6         1 Q7G       0.170300
      5 C01        125.2760   144.4110   134.7480 c3         1 Q7G      -0.080100
      6 C03        126.8970   144.1260   132.6200 c5         1 Q7G      -0.084700
      7 C04        126.2100   142.8410   132.0750 c5         1 Q7G       0.157300
      8 C06        124.6510   144.6760   132.2200 c5         1 Q7G      -0.065700
      9 C07        123.2780   145.3720   132.4490 c6         1 Q7G      -0.040700
     10 C08        123.4700   146.9340   132.6500 c6         1 Q7G      -0.048700
     11 C10        125.9120   146.5030   133.4610 c6         1 Q7G      -0.062400
     12 C18        121.0540   150.1120   132.6180 c6         1 Q7G      -0.106400
     13 C19        122.3490   149.2660   132.6890 c6         1 Q7G      -0.064400
     14 C02        125.7130   144.9450   133.3330 c5         1 Q7G      -0.038000
     15 C05        124.6730   143.1200   132.1190 c5         1 Q7G      -0.070400
     16 C09        124.5710   147.2430   133.7310 c6         1 Q7G      -0.069400
     17 C1         111.6660   152.9490   127.9990 c6         1 Q7G       0.407300
     18 C11        122.0990   147.7320   132.8920 c6         1 Q7G       0.000200
     19 C12        121.5320   147.4560   134.3270 c3         1 Q7G      -0.078100
     20 C14        121.1500   146.0830   131.1880 c2         1 Q7G      -0.219200
     21 C1B        113.9100   150.9160   132.4450 c6         1 Q7G       0.362800
     22 C1C        117.4250   155.4950   132.8520 c6         1 Q7G       0.362800
     23 C2         110.7930   152.2270   126.9130 c6         1 Q7G       0.139300
     24 C21        120.1330   160.7050   135.6120 c6         1 Q7G       0.139300
     25 C22        117.5270   152.3260   131.0680 c3         1 Q7G      -0.062400
     26 C23        116.8580   152.4640   132.4770 c3         1 Q7G      -0.123700
     27 C24        116.3030   151.1280   133.0430 c3         1 Q7G       0.166100
     28 C2B        112.9480   149.9470   131.6780 c6         1 Q7G       0.135800
     29 C2C        118.1090   156.6960   132.1080 c6         1 Q7G       0.135800
     30 C3         109.7380   153.2340   126.3450 c6         1 Q7G       0.116800
     31 C31        119.7220   161.8840   136.5510 c6         1 Q7G       0.116800
     32 C3B        112.9740   150.2510   130.1520 c6         1 Q7G       0.146300
     33 C3C        119.2440   157.2770   132.9960 c6         1 Q7G       0.146300
     34 C4         110.4660   154.5250   125.8270 c6         1 Q7G       0.139800
     35 C41        119.8930   161.4490   138.0530 c6         1 Q7G       0.139800
     36 C48        117.7840   153.1390   133.5280 c3         1 Q7G       0.166100
     37 C4B        112.6700   151.7550   129.8940 c6         1 Q7G       0.138300
     38 C4C        118.6650   157.6960   134.3760 c6         1 Q7G       0.138300
     39 C5         111.4220   155.1240   126.9220 c6         1 Q7G       0.165800
     40 C51        119.1390   160.0990   138.3450 c6         1 Q7G       0.165800
     41 C5B        113.6950   152.6190   130.6930 c6         1 Q7G       0.136800
     42 C5C        118.0040   156.4440   135.0370 c6         1 Q7G       0.136800
     43 C6         110.7080   155.8630   128.1130 c3         1 Q7G       0.131600
     44 C61        117.5700   160.2060   138.4200 c3         1 Q7G       0.131600
     45 C6B        113.4940   154.1610   130.5440 c3         1 Q7G       0.172100
     46 C6C        117.3700   156.7090   136.4380 c3         1 Q7G       0.172100
     47 C73        127.9580   142.0550   133.3550 c5         1 Q7G       0.379000
     48 C74        127.9850   143.6010   133.6290 c5         1 Q7G      -0.063700
     49 C75        129.3600   144.3040   133.5050 c3         1 Q7G      -0.072100
     50 C76        128.4120   141.1840   134.5570 c6         1 Q7G      -0.079400
     51 C77        128.5700   139.7020   134.1700 c6         1 Q7G      -0.069400
     52 C78        129.5510   139.5850   132.9850 c6         1 Q7G      -0.098700
     53 C79        129.0640   140.4480   131.7920 c6         1 Q7G       0.162600
     54 C81        129.7650   138.1070   132.5640 c3         1 Q7G      -0.084100
     55 CF1        119.3080   159.4230   136.0050 c6         1 Q7G       0.407300
     56 O1         112.6840   152.0390   128.4690 os         1 Q7G      -0.432500
     57 O11        119.7090   158.3010   135.1830 os         1 Q7G      -0.432500
     58 O1B        115.2910   150.5840   132.1660 os         1 Q7G      -0.473500
     59 O1C        118.3250   154.3720   133.0070 os         1 Q7G      -0.473500
     60 O2         111.6250   151.7120   125.8410 oh         1 Q7G      -0.672000
     61 O20        118.8820   150.3430   131.4510 os         1 Q7G      -0.475000
     62 O21        121.5580   160.4860   135.7370 oh         1 Q7G      -0.672000
     63 O2B        113.2920   148.5570   131.9040 oh         1 Q7G      -0.712000
     64 O2C        118.6490   156.3470   130.8140 oh         1 Q7G      -0.712000
     65 O3         108.7480   153.5500   127.3400 oh         1 Q7G      -0.664500
     66 O31        118.3790   162.3140   136.2650 oh         1 Q7G      -0.664500
     67 O3B        112.0430   149.3840   129.4680 oh         1 Q7G      -0.735000
     68 O3C        119.8930   158.3860   132.3350 oh         1 Q7G      -0.735000
     69 O4         111.2400   154.1630   124.6680 oh         1 Q7G      -0.697500
     70 O5         112.3270   154.0980   127.4220 os         1 Q7G      -0.456500
     71 O51        119.5440   159.0760   137.3900 os         1 Q7G      -0.456500
     72 O5B        113.6250   152.2920   132.1080 os         1 Q7G      -0.461500
     73 O5C        116.9670   155.9190   134.1590 os         1 Q7G      -0.461500
     74 O6         111.6320   156.4360   129.0620 oh         1 Q7G      -0.729500
     75 O61        116.9270   158.9570   138.7520 oh         1 Q7G      -0.729500
     76 O6B        112.1910   154.6280   130.9470 oh         1 Q7G      -0.750000
     77 O6C        116.3560   157.7330   136.4480 oh         1 Q7G      -0.750000
     78 O72        126.5780   141.8140   133.0120 os         1 Q7G      -0.471000
     79 O80        128.7590   141.8150   132.1630 os         1 Q7G      -0.478000
     80 H1         121.9540   144.0910   131.2920 hc         1 Q7G       0.046200
     81 H2         122.8820   145.2060   130.3030 hc         1 Q7G       0.046200
     82 H3         119.1630   148.0080   132.6410 hc         1 Q7G       0.055700
     83 H4         119.1600   147.7390   130.9120 hc         1 Q7G       0.055700
     84 H5         120.6200   149.6850   130.5310 h1         1 Q7G       0.036700
     85 H6         125.9260   144.8130   135.5330 hc         1 Q7G       0.036033
     86 H7         124.2580   144.7090   135.0160 hc         1 Q7G       0.036033
     87 H8         125.3150   143.3190   134.8270 hc         1 Q7G       0.036033
     88 H9         127.3420   144.6930   131.7930 hc         1 Q7G       0.062700
     89 H10        126.5660   142.5810   131.0690 h1         1 Q7G       0.052700
     90 H11        124.9990   145.0940   131.2670 hc         1 Q7G       0.042700
     91 H12        122.8030   144.9510   133.3440 hc         1 Q7G       0.055700
     92 H13        123.8760   147.3020   131.6970 hc         1 Q7G       0.044700
     93 H14        126.3510   146.8920   132.5320 hc         1 Q7G       0.040200
     94 H15        126.6370   146.7310   134.2550 hc         1 Q7G       0.040200
     95 H16        121.3350   151.1550   132.4270 hc         1 Q7G       0.055200
     96 H17        120.5350   150.1030   133.5850 hc         1 Q7G       0.055200
     97 H18        122.9120   149.4240   131.7590 hc         1 Q7G       0.041700
     98 H19        122.9790   149.6610   133.4950 hc         1 Q7G       0.041700
     99 H22        124.1740   142.6340   132.9640 hc         1 Q7G       0.055700
    100 H23        124.1780   142.7630   131.2100 hc         1 Q7G       0.055700
    101 H24        124.7800   148.3190   133.7600 hc         1 Q7G       0.041200
    102 H25        124.2140   146.9820   134.7340 hc         1 Q7G       0.041200
    103 H26        111.0240   153.2670   128.8320 h2         1 Q7G       0.044200
    104 H27        122.1810   147.8660   135.1100 hc         1 Q7G       0.034367
    105 H28        120.5480   147.9120   134.4790 hc         1 Q7G       0.034367
    106 H29        121.4160   146.3840   134.5180 hc         1 Q7G       0.034367
    107 H30        120.3540   145.7810   130.5050 ha         1 Q7G       0.171000
    108 H31        113.7280   150.7740   133.5220 h2         1 Q7G       0.081200
    109 H32        116.5570   155.1870   132.2510 h2         1 Q7G       0.081200
    110 H33        110.2600   151.3960   127.3970 h1         1 Q7G       0.050700
    111 H34        119.8860   160.9740   134.5750 h1         1 Q7G       0.050700
    112 H35        117.5860   153.3230   130.6150 hc         1 Q7G       0.056200
    113 H36        116.8820   151.7400   130.4040 hc         1 Q7G       0.056200
    114 H37        115.9950   153.1250   132.3590 hc         1 Q7G       0.066700
    115 H38        115.8910   151.2970   134.0480 h1         1 Q7G       0.052200
    116 H39        117.1240   150.4110   133.1580 h1         1 Q7G       0.052200
    117 H40        111.9290   150.1380   132.0470 h1         1 Q7G       0.058200
    118 H41        117.3450   157.4780   131.9820 h1         1 Q7G       0.058200
    119 H42        109.2360   152.7590   125.4880 h1         1 Q7G       0.045700
    120 H43        120.4070   162.7240   136.3580 h1         1 Q7G       0.045700
    121 H44        113.9950   150.0550   129.7870 h1         1 Q7G       0.075700
    122 H45        119.9780   156.4760   133.1750 h1         1 Q7G       0.075700
    123 H46        109.7170   155.2810   125.5500 h1         1 Q7G       0.040200
    124 H47        119.4820   162.2390   138.7000 h1         1 Q7G       0.040200
    125 H48        117.2240   153.3200   134.4550 h1         1 Q7G       0.052200
    126 H49        118.6030   152.4510   133.7740 h1         1 Q7G       0.052200
    127 H50        111.6640   151.9550   130.2920 h1         1 Q7G       0.070200
    128 H51        117.8800   158.4430   134.1880 h1         1 Q7G       0.070200
    129 H52        112.0370   155.8860   126.4230 h1         1 Q7G       0.093700
    130 H53        119.4620   159.7600   139.3400 h1         1 Q7G       0.093700
    131 H54        114.7040   152.3870   130.3270 h1         1 Q7G       0.066700
    132 H55        118.7730   155.6700   135.1750 h1         1 Q7G       0.066700
    133 H56        110.0670   156.6490   127.6910 h1         1 Q7G       0.039700
    134 H57        110.0460   155.1670   128.6390 h1         1 Q7G       0.039700
    135 H58        117.1750   160.5630   137.4640 h1         1 Q7G       0.039700
    136 H59        117.3160   160.9680   139.1700 h1         1 Q7G       0.039700
    137 H60        113.6930   154.4310   129.4990 h1         1 Q7G       0.051700
    138 H61        114.2700   154.6580   131.1410 h1         1 Q7G       0.051700
    139 H62        116.9460   155.7610   136.7980 h1         1 Q7G       0.051700
    140 H63        118.1800   156.9650   137.1330 h1         1 Q7G       0.051700
    141 H64        127.7090   143.7620   134.6730 hc         1 Q7G       0.060700
    142 H65        130.0950   143.8590   134.1850 hc         1 Q7G       0.038367
    143 H66        129.7590   144.2360   132.4860 hc         1 Q7G       0.038367
    144 H67        129.2750   145.3680   133.7560 hc         1 Q7G       0.038367
    145 H68        129.3640   141.5670   134.9470 hc         1 Q7G       0.055700
    146 H69        127.6850   141.2790   135.3740 hc         1 Q7G       0.055700
    147 H70        127.5930   139.2780   133.8990 hc         1 Q7G       0.047700
    148 H71        128.9400   139.1280   135.0310 hc         1 Q7G       0.047700
    149 H72        130.5350   139.9600   133.3010 hc         1 Q7G       0.053700
    150 H73        128.1530   139.9990   131.3720 h1         1 Q7G       0.048700
    151 H74        129.8240   140.4590   130.9970 h1         1 Q7G       0.048700
    152 H75        130.1490   137.5080   133.3990 hc         1 Q7G       0.034700
    153 H76        128.8280   137.6470   132.2270 hc         1 Q7G       0.034700
    154 H77        130.4890   138.0300   131.7430 hc         1 Q7G       0.034700
    155 H78        118.2390   159.6310   135.8560 h2         1 Q7G       0.044200
    156 H79        112.3520   151.2150   126.2880 ho         1 Q7G       0.496000
    157 H80        121.7250   160.6190   136.7090 ho         1 Q7G       0.496000
    158 H81        114.2770   148.5330   131.9750 ho         1 Q7G       0.513000
    159 H82        119.3480   157.0280   130.6580 ho         1 Q7G       0.513000
    160 H83        108.0210   152.8930   127.2480 ho         1 Q7G       0.451000
    161 H84        118.3200   163.2660   136.5050 ho         1 Q7G       0.451000
    162 H85        112.1040   148.5230   129.9490 ho         1 Q7G       0.517000
    163 H86        120.5040   158.7760   133.0060 ho         1 Q7G       0.517000
    164 H87        111.5850   153.2550   124.8870 ho         1 Q7G       0.505500
    165 H89        111.9900   157.2640   128.6570 ho         1 Q7G       0.514500
    166 H90        117.0610   158.8060   139.7190 ho         1 Q7G       0.514500
    167 H91        111.9440   155.3400   130.2840 ho         1 Q7G       0.527500
    168 H92        116.4840   158.2190   137.3170 ho         1 Q7G       0.527500
    169 CG1        118.9500   151.7160   131.0280 c3         1 Q7G       0.152600
    170 O41        121.3050   161.2830   138.3270 oh         1 Q7G      -0.697500
    171 H20        119.3340   151.7760   130.0010 h1         1 Q7G       0.036200
    172 H21        119.6170   152.3050   131.6690 h1         1 Q7G       0.036200
    173 H88        121.4350   161.4220   139.2960 ho         1 Q7G       0.505500
@<TRIPOS>BOND
     1     1     3 1   
     2     1    18 1   
     3     1    20 2   
     4     2     9 1   
     5     2    20 1   
     6     2    80 1   
     7     2    81 1   
     8     3     4 1   
     9     3    82 1   
    10     3    83 1   
    11     4    12 1   
    12     4    61 1   
    13     4    84 1   
    14     5    14 1   
    15     5    85 1   
    16     5    86 1   
    17     5    87 1   
    18     6     7 1   
    19     6    14 1   
    20     6    48 1   
    21     6    88 1   
    22     7    15 1   
    23     7    78 1   
    24     7    89 1   
    25     8     9 1   
    26     8    14 1   
    27     8    15 1   
    28     8    90 1   
    29     9    10 1   
    30     9    91 1   
    31    10    16 1   
    32    10    18 1   
    33    10    92 1   
    34    11    14 1   
    35    11    16 1   
    36    11    93 1   
    37    11    94 1   
    38    12    13 1   
    39    12    95 1   
    40    12    96 1   
    41    13    18 1   
    42    13    97 1   
    43    13    98 1   
    44    15    99 1   
    45    15   100 1   
    46    16   101 1   
    47    16   102 1   
    48    17    23 1   
    49    17    56 1   
    50    17    70 1   
    51    17   103 1   
    52    18    19 1   
    53    19   104 1   
    54    19   105 1   
    55    19   106 1   
    56    20   107 1   
    57    21    28 1   
    58    21    58 1   
    59    21    72 1   
    60    21   108 1   
    61    22    29 1   
    62    22    59 1   
    63    22    73 1   
    64    22   109 1   
    65    23    30 1   
    66    23    60 1   
    67    23   110 1   
    68    24    31 1   
    69    24    55 1   
    70    24    62 1   
    71    24   111 1   
    72    25    26 1   
    73    25   112 1   
    74    25   113 1   
    75    25   169 1   
    76    26    27 1   
    77    26    36 1   
    78    26   114 1   
    79    27    58 1   
    80    27   115 1   
    81    27   116 1   
    82    28    32 1   
    83    28    63 1   
    84    28   117 1   
    85    29    33 1   
    86    29    64 1   
    87    29   118 1   
    88    30    34 1   
    89    30    65 1   
    90    30   119 1   
    91    31    35 1   
    92    31    66 1   
    93    31   120 1   
    94    32    37 1   
    95    32    67 1   
    96    32   121 1   
    97    33    38 1   
    98    33    68 1   
    99    33   122 1   
   100    34    39 1   
   101    34    69 1   
   102    34   123 1   
   103    35    40 1   
   104    35   124 1   
   105    35   170 1   
   106    36    59 1   
   107    36   125 1   
   108    36   126 1   
   109    37    41 1   
   110    37    56 1   
   111    37   127 1   
   112    38    42 1   
   113    38    57 1   
   114    38   128 1   
   115    39    43 1   
   116    39    70 1   
   117    39   129 1   
   118    40    44 1   
   119    40    71 1   
   120    40   130 1   
   121    41    45 1   
   122    41    72 1   
   123    41   131 1   
   124    42    46 1   
   125    42    73 1   
   126    42   132 1   
   127    43    74 1   
   128    43   133 1   
   129    43   134 1   
   130    44    75 1   
   131    44   135 1   
   132    44   136 1   
   133    45    76 1   
   134    45   137 1   
   135    45   138 1   
   136    46    77 1   
   137    46   139 1   
   138    46   140 1   
   139    47    48 1   
   140    47    50 1   
   141    47    78 1   
   142    47    79 1   
   143    48    49 1   
   144    48   141 1   
   145    49   142 1   
   146    49   143 1   
   147    49   144 1   
   148    50    51 1   
   149    50   145 1   
   150    50   146 1   
   151    51    52 1   
   152    51   147 1   
   153    51   148 1   
   154    52    53 1   
   155    52    54 1   
   156    52   149 1   
   157    53    79 1   
   158    53   150 1   
   159    53   151 1   
   160    54   152 1   
   161    54   153 1   
   162    54   154 1   
   163    55    57 1   
   164    55    71 1   
   165    55   155 1   
   166    60   156 1   
   167    61   169 1   
   168    62   157 1   
   169    63   158 1   
   170    64   159 1   
   171    65   160 1   
   172    66   161 1   
   173    67   162 1   
   174    68   163 1   
   175    69   164 1   
   176    74   165 1   
   177    75   166 1   
   178    76   167 1   
   179    77   168 1   
   180   169   171 1   
   181   169   172 1   
   182   170   173 1   
@<TRIPOS>SUBSTRUCTURE
     1 Q7G         1 TEMP              0 ****  ****    0 ROOT
