@<TRIPOS>MOLECULE
Q7G
  173   182     1     0     0
SMALL
abcg2


@<TRIPOS>ATOM
      1 C13        120.8390   147.2740   132.0770 c2         1 Q7G      -0.106400
      2 C15        122.3880   145.4140   131.4130 c6         1 Q7G      -0.036200
      3 C16        119.5030   147.9630   131.9430 c6         1 Q7G      -0.038200
      4 C17        119.6680   149.4490   131.6640 c6         1 Q7G       0.170300
      5 C01        125.2830   145.0720   134.8660 c3         1 Q7G      -0.080100
      6 C03        126.9880   145.0700   132.9580 c5         1 Q7G      -0.084700
      7 C04        126.5240   143.8280   132.1450 c5         1 Q7G       0.157300
      8 C06        124.6960   145.3160   132.3920 c5         1 Q7G      -0.065700
      9 C07        123.2630   145.7860   132.6100 c6         1 Q7G      -0.040700
     10 C08        123.2620   147.3160   132.8100 c6         1 Q7G      -0.048700
     11 C10        125.6970   147.2190   133.6250 c6         1 Q7G      -0.062400
     12 C18        120.5040   150.0870   132.7660 c6         1 Q7G      -0.106400
     13 C19        121.8770   149.4210   132.8290 c6         1 Q7G      -0.064400
     14 C02        125.6820   145.6940   133.5190 c5         1 Q7G      -0.038000
     15 C05        124.9920   143.8370   132.1280 c5         1 Q7G      -0.070400
     16 C09        124.2890   147.7760   133.8620 c6         1 Q7G      -0.069400
     17 C1         110.6510   152.6790   128.0400 c6         1 Q7G       0.407300
     18 C11        121.8360   147.8880   133.0590 c6         1 Q7G       0.000200
     19 C12        121.3490   147.6010   134.4940 c3         1 Q7G      -0.078100
     20 C14        121.1110   146.1900   131.3520 c2         1 Q7G      -0.219200
     21 C1B        113.9260   153.4030   132.1300 c6         1 Q7G       0.362800
     22 C1C        118.7440   154.7390   132.5100 c6         1 Q7G       0.362800
     23 C2         109.4450   151.7810   127.8000 c6         1 Q7G       0.139300
     24 C21        121.3170   158.0450   137.4150 c6         1 Q7G       0.139300
     25 C22        117.0600   151.9620   130.9120 c3         1 Q7G      -0.062400
     26 C23        116.7580   152.5780   132.2990 c3         1 Q7G      -0.123700
     27 C24        115.5760   151.9020   132.9940 c3         1 Q7G       0.166100
     28 C2B        112.4290   153.5410   132.3950 c6         1 Q7G       0.135800
     29 C2C        120.0450   155.5340   132.4330 c6         1 Q7G       0.135800
     30 C3         108.6440   152.3110   126.5950 c6         1 Q7G       0.116800
     31 C31        121.1480   159.3440   138.2160 c6         1 Q7G       0.116800
     32 C3B        111.6320   152.7360   131.3840 c6         1 Q7G       0.146300
     33 C3C        120.6120   155.7670   133.8250 c6         1 Q7G       0.146300
     34 C4         109.5170   152.6200   125.3710 c6         1 Q7G       0.139800
     35 C41        119.8820   159.3610   139.0820 c6         1 Q7G       0.139800
     36 C48        117.9100   152.6230   133.3050 c3         1 Q7G       0.166100
     37 C4B        112.0430   153.1120   129.9670 c6         1 Q7G       0.138300
     38 C4C        119.5580   156.4020   134.7240 c6         1 Q7G       0.138300
     39 C5         110.8170   153.3430   125.7320 c6         1 Q7G       0.165800
     40 C51        118.6460   158.8240   138.3430 c6         1 Q7G       0.165800
     41 C5B        113.5670   153.0830   129.7910 c6         1 Q7G       0.136800
     42 C5C        118.2870   155.5530   134.7210 c6         1 Q7G       0.136800
     43 C6         110.6460   154.8480   125.8740 c3         1 Q7G       0.131600
     44 C61        117.9450   159.8690   137.4880 c3         1 Q7G       0.131600
     45 C6B        114.0390   153.6460   128.4620 c3         1 Q7G       0.172100
     46 C6C        117.1340   156.1490   135.5000 c3         1 Q7G       0.172100
     47 C73        128.3350   143.1060   133.3580 c5         1 Q7G       0.379000
     48 C74        128.0570   144.5160   133.9150 c5         1 Q7G      -0.063700
     49 C75        129.2790   145.4070   134.0880 c3         1 Q7G      -0.072100
     50 C76        128.7840   142.0830   134.3910 c6         1 Q7G      -0.079400
     51 C77        129.1800   140.7530   133.7520 c6         1 Q7G      -0.069400
     52 C78        130.1890   140.9710   132.6220 c6         1 Q7G      -0.098700
     53 C79        129.6320   142.0120   131.6600 c6         1 Q7G       0.162600
     54 C81        130.5250   139.6770   131.8870 c3         1 Q7G      -0.084100
     55 CF1        120.0150   157.7220   136.6960 c6         1 Q7G       0.407300
     56 O1         111.4360   152.1730   129.0720 os         1 Q7G      -0.432500
     57 O11        120.1170   156.4980   136.0370 os         1 Q7G      -0.432500
     58 O1B        114.3310   152.0730   132.3100 os         1 Q7G      -0.473500
     59 O1C        119.0350   153.4320   132.9330 os         1 Q7G      -0.473500
     60 O2         109.8850   150.4470   127.6070 oh         1 Q7G      -0.672000
     61 O20        118.3710   150.0380   131.5530 os         1 Q7G      -0.475000
     62 O21        121.6750   156.9460   138.2360 oh         1 Q7G      -0.672000
     63 O2B        112.0750   153.0980   133.7000 oh         1 Q7G      -0.712000
     64 O2C        120.9630   154.8590   131.5860 oh         1 Q7G      -0.712000
     65 O3         107.9880   153.5320   126.9320 oh         1 Q7G      -0.664500
     66 O31        121.1100   160.3950   137.2530 oh         1 Q7G      -0.664500
     67 O3B        110.2350   152.9860   131.5190 oh         1 Q7G      -0.735000
     68 O3C        121.7520   156.6120   133.6730 oh         1 Q7G      -0.735000
     69 O4         109.8920   151.4320   124.6770 oh         1 Q7G      -0.697500
     70 O5         111.4630   152.7570   126.8700 os         1 Q7G      -0.456500
     71 O51        118.9350   157.6230   137.6190 os         1 Q7G      -0.456500
     72 O5B        114.2030   153.8580   130.8200 os         1 Q7G      -0.461500
     73 O5C        117.8360   155.3960   133.3660 os         1 Q7G      -0.461500
     74 O6         111.9510   155.4230   126.0410 oh         1 Q7G      -0.729500
     75 O61        116.6830   159.3180   137.0690 oh         1 Q7G      -0.729500
     76 O6B        113.5910   154.9790   128.2500 oh         1 Q7G      -0.750000
     77 O6C        116.8500   157.4700   135.0580 oh         1 Q7G      -0.750000
     78 O72        127.0860   142.6900   132.8170 os         1 Q7G      -0.471000
     79 O80        129.3020   143.2380   132.3200 os         1 Q7G      -0.478000
     80 H1         122.1650   144.3430   131.4310 hc         1 Q7G       0.046200
     81 H2         122.9540   145.5770   130.4860 hc         1 Q7G       0.046200
     82 H3         118.9190   147.8620   132.8650 hc         1 Q7G       0.055700
     83 H4         118.9250   147.4970   131.1420 hc         1 Q7G       0.055700
     84 H5         120.1890   149.5710   130.7040 h1         1 Q7G       0.036700
     85 H6         125.9340   145.4390   135.6610 hc         1 Q7G       0.036033
     86 H7         124.2610   145.3260   135.1410 hc         1 Q7G       0.036033
     87 H8         125.3590   143.9850   134.8540 hc         1 Q7G       0.036033
     88 H9         127.4450   145.7950   132.2820 hc         1 Q7G       0.062700
     89 H10        126.9190   143.8590   131.1260 h1         1 Q7G       0.052700
     90 H11        125.0500   145.8600   131.5040 hc         1 Q7G       0.042700
     91 H12        122.8490   145.3050   133.5010 hc         1 Q7G       0.055700
     92 H13        123.5880   147.7350   131.8480 hc         1 Q7G       0.044700
     93 H14        126.0990   147.6280   132.6920 hc         1 Q7G       0.040200
     94 H15        126.3630   147.5460   134.4290 hc         1 Q7G       0.040200
     95 H16        120.6140   151.1600   132.6010 hc         1 Q7G       0.055200
     96 H17        119.9740   149.9650   133.7150 hc         1 Q7G       0.055200
     97 H18        122.4000   149.6140   131.8860 hc         1 Q7G       0.041700
     98 H19        122.4690   149.8870   133.6170 hc         1 Q7G       0.041700
     99 H22        124.6010   143.2060   132.9280 hc         1 Q7G       0.055700
    100 H23        124.5850   143.4740   131.1850 hc         1 Q7G       0.055700
    101 H24        124.3380   148.8660   133.8680 hc         1 Q7G       0.041200
    102 H25        123.9550   147.4820   134.8570 hc         1 Q7G       0.041200
    103 H26        110.2830   153.6740   128.3030 h2         1 Q7G       0.044200
    104 H27        121.9270   148.1660   135.2260 hc         1 Q7G       0.034367
    105 H28        120.3030   147.8820   134.6190 hc         1 Q7G       0.034367
    106 H29        121.4360   146.5390   134.7320 hc         1 Q7G       0.034367
    107 H30        120.3580   145.8280   130.6570 ha         1 Q7G       0.171000
    108 H31        114.4790   154.0700   132.7950 h2         1 Q7G       0.081200
    109 H32        118.2570   154.7330   131.5330 h2         1 Q7G       0.081200
    110 H33        108.8050   151.8480   128.6880 h1         1 Q7G       0.050700
    111 H34        122.0820   158.2240   136.6510 h1         1 Q7G       0.050700
    112 H35        117.0510   152.7540   130.1600 hc         1 Q7G       0.056200
    113 H36        116.2460   151.2860   130.6370 hc         1 Q7G       0.056200
    114 H37        116.4540   153.6110   132.1420 hc         1 Q7G       0.066700
    115 H38        115.4680   152.2940   134.0110 h1         1 Q7G       0.052200
    116 H39        115.7240   150.8230   133.0570 h1         1 Q7G       0.052200
    117 H40        112.1740   154.6000   132.2740 h1         1 Q7G       0.058200
    118 H41        119.7860   156.5090   132.0040 h1         1 Q7G       0.058200
    119 H42        107.9070   151.5500   126.3090 h1         1 Q7G       0.045700
    120 H43        122.0130   159.4580   138.8790 h1         1 Q7G       0.045700
    121 H44        111.8350   151.6700   131.5360 h1         1 Q7G       0.075700
    122 H45        120.9160   154.8080   134.2570 h1         1 Q7G       0.075700
    123 H46        108.9310   153.2670   124.7110 h1         1 Q7G       0.040200
    124 H47        119.6900   160.4020   139.3650 h1         1 Q7G       0.040200
    125 H48        117.5100   152.9910   134.2530 h1         1 Q7G       0.052200
    126 H49        118.3250   151.6330   133.4750 h1         1 Q7G       0.052200
    127 H50        111.6780   154.1190   129.7500 h1         1 Q7G       0.070200
    128 H51        119.3210   157.4000   134.3510 h1         1 Q7G       0.070200
    129 H52        111.5130   153.1750   124.9100 h1         1 Q7G       0.093700
    130 H53        117.9250   158.5110   139.1020 h1         1 Q7G       0.093700
    131 H54        113.9070   152.0450   129.8600 h1         1 Q7G       0.066700
    132 H55        118.5240   154.5690   135.1430 h1         1 Q7G       0.066700
    133 H56        110.1820   155.2360   124.9650 h1         1 Q7G       0.039700
    134 H57        110.0060   155.1110   126.7180 h1         1 Q7G       0.039700
    135 H58        118.5370   160.1580   136.6190 h1         1 Q7G       0.039700
    136 H59        117.7730   160.7590   138.0980 h1         1 Q7G       0.039700
    137 H60        113.6940   152.9890   127.6650 h1         1 Q7G       0.051700
    138 H61        115.1320   153.6330   128.4720 h1         1 Q7G       0.051700
    139 H62        116.2540   155.5110   135.3540 h1         1 Q7G       0.051700
    140 H63        117.3930   156.1440   136.5580 h1         1 Q7G       0.051700
    141 H64        127.6160   144.3480   134.8970 hc         1 Q7G       0.060700
    142 H65        130.0310   144.9330   134.7230 hc         1 Q7G       0.038367
    143 H66        129.7390   145.6370   133.1280 hc         1 Q7G       0.038367
    144 H67        128.9900   146.3480   134.5610 hc         1 Q7G       0.038367
    145 H68        129.6420   142.5070   134.9200 hc         1 Q7G       0.055700
    146 H69        127.9830   141.9490   135.1200 hc         1 Q7G       0.055700
    147 H70        128.2920   140.2600   133.3440 hc         1 Q7G       0.047700
    148 H71        129.5970   140.0830   134.5070 hc         1 Q7G       0.047700
    149 H72        131.1080   141.3810   133.0570 hc         1 Q7G       0.053700
    150 H73        128.7440   141.6130   131.1550 h1         1 Q7G       0.048700
    151 H74        130.3670   142.2790   130.8990 h1         1 Q7G       0.048700
    152 H75        130.9310   138.9350   132.5780 hc         1 Q7G       0.034700
    153 H76        129.6290   139.2510   131.4270 hc         1 Q7G       0.034700
    154 H77        131.2620   139.8460   131.0990 hc         1 Q7G       0.034700
    155 H78        119.8190   158.5210   135.9750 h2         1 Q7G       0.044200
    156 H79        109.1080   149.8880   127.4800 ho         1 Q7G       0.496000
    157 H80        122.4120   157.2110   138.7990 ho         1 Q7G       0.496000
    158 H81        112.4380   153.7220   134.3410 ho         1 Q7G       0.513000
    159 H82        121.7870   155.3640   131.5990 ho         1 Q7G       0.513000
    160 H83        107.4050   153.3740   127.6860 ho         1 Q7G       0.451000
    161 H84        121.0510   161.2390   137.7180 ho         1 Q7G       0.451000
    162 H85        109.9960   152.7990   132.4370 ho         1 Q7G       0.517000
    163 H86        122.2270   156.6290   134.5140 ho         1 Q7G       0.517000
    164 H87        109.0940   150.9250   124.4800 ho         1 Q7G       0.505500
    165 H89        111.8800   156.3800   125.9360 ho         1 Q7G       0.514500
    166 H90        116.1420   160.0380   136.7180 ho         1 Q7G       0.514500
    167 H91        112.9980   155.0070   127.4750 ho         1 Q7G       0.527500
    168 H92        116.8390   158.0690   135.8280 ho         1 Q7G       0.527500
    169 CG1        118.3730   151.2230   130.7570 c3         1 Q7G       0.152600
    170 O41        120.1570   158.5930   140.2520 oh         1 Q7G      -0.697500
    171 H20        118.5150   150.9450   129.7050 h1         1 Q7G       0.036200
    172 H21        119.2060   151.8690   131.0440 h1         1 Q7G       0.036200
    173 H88        119.4130   158.6920   140.8590 ho         1 Q7G       0.505500
@<TRIPOS>BOND
     1     1     3 1   
     2     1    18 1   
     3     1    20 2   
     4     2     9 1   
     5     2    20 1   
     6     2    80 1   
     7     2    81 1   
     8     3     4 1   
     9     3    82 1   
    10     3    83 1   
    11     4    12 1   
    12     4    61 1   
    13     4    84 1   
    14     5    14 1   
    15     5    85 1   
    16     5    86 1   
    17     5    87 1   
    18     6     7 1   
    19     6    14 1   
    20     6    48 1   
    21     6    88 1   
    22     7    15 1   
    23     7    78 1   
    24     7    89 1   
    25     8     9 1   
    26     8    14 1   
    27     8    15 1   
    28     8    90 1   
    29     9    10 1   
    30     9    91 1   
    31    10    16 1   
    32    10    18 1   
    33    10    92 1   
    34    11    14 1   
    35    11    16 1   
    36    11    93 1   
    37    11    94 1   
    38    12    13 1   
    39    12    95 1   
    40    12    96 1   
    41    13    18 1   
    42    13    97 1   
    43    13    98 1   
    44    15    99 1   
    45    15   100 1   
    46    16   101 1   
    47    16   102 1   
    48    17    23 1   
    49    17    56 1   
    50    17    70 1   
    51    17   103 1   
    52    18    19 1   
    53    19   104 1   
    54    19   105 1   
    55    19   106 1   
    56    20   107 1   
    57    21    28 1   
    58    21    58 1   
    59    21    72 1   
    60    21   108 1   
    61    22    29 1   
    62    22    59 1   
    63    22    73 1   
    64    22   109 1   
    65    23    30 1   
    66    23    60 1   
    67    23   110 1   
    68    24    31 1   
    69    24    55 1   
    70    24    62 1   
    71    24   111 1   
    72    25    26 1   
    73    25   112 1   
    74    25   113 1   
    75    25   169 1   
    76    26    27 1   
    77    26    36 1   
    78    26   114 1   
    79    27    58 1   
    80    27   115 1   
    81    27   116 1   
    82    28    32 1   
    83    28    63 1   
    84    28   117 1   
    85    29    33 1   
    86    29    64 1   
    87    29   118 1   
    88    30    34 1   
    89    30    65 1   
    90    30   119 1   
    91    31    35 1   
    92    31    66 1   
    93    31   120 1   
    94    32    37 1   
    95    32    67 1   
    96    32   121 1   
    97    33    38 1   
    98    33    68 1   
    99    33   122 1   
   100    34    39 1   
   101    34    69 1   
   102    34   123 1   
   103    35    40 1   
   104    35   124 1   
   105    35   170 1   
   106    36    59 1   
   107    36   125 1   
   108    36   126 1   
   109    37    41 1   
   110    37    56 1   
   111    37   127 1   
   112    38    42 1   
   113    38    57 1   
   114    38   128 1   
   115    39    43 1   
   116    39    70 1   
   117    39   129 1   
   118    40    44 1   
   119    40    71 1   
   120    40   130 1   
   121    41    45 1   
   122    41    72 1   
   123    41   131 1   
   124    42    46 1   
   125    42    73 1   
   126    42   132 1   
   127    43    74 1   
   128    43   133 1   
   129    43   134 1   
   130    44    75 1   
   131    44   135 1   
   132    44   136 1   
   133    45    76 1   
   134    45   137 1   
   135    45   138 1   
   136    46    77 1   
   137    46   139 1   
   138    46   140 1   
   139    47    48 1   
   140    47    50 1   
   141    47    78 1   
   142    47    79 1   
   143    48    49 1   
   144    48   141 1   
   145    49   142 1   
   146    49   143 1   
   147    49   144 1   
   148    50    51 1   
   149    50   145 1   
   150    50   146 1   
   151    51    52 1   
   152    51   147 1   
   153    51   148 1   
   154    52    53 1   
   155    52    54 1   
   156    52   149 1   
   157    53    79 1   
   158    53   150 1   
   159    53   151 1   
   160    54   152 1   
   161    54   153 1   
   162    54   154 1   
   163    55    57 1   
   164    55    71 1   
   165    55   155 1   
   166    60   156 1   
   167    61   169 1   
   168    62   157 1   
   169    63   158 1   
   170    64   159 1   
   171    65   160 1   
   172    66   161 1   
   173    67   162 1   
   174    68   163 1   
   175    69   164 1   
   176    74   165 1   
   177    75   166 1   
   178    76   167 1   
   179    77   168 1   
   180   169   171 1   
   181   169   172 1   
   182   170   173 1   
@<TRIPOS>SUBSTRUCTURE
     1 Q7G         1 TEMP              0 ****  ****    0 ROOT
