@<TRIPOS>MOLECULE
Q7H
   65    69     1     0     0
SMALL
abcg2


@<TRIPOS>ATOM
      1 O3          36.1220    35.1280    20.1780 os         1 Q7H      -0.351100
      2 C4          36.2630    28.1040    20.4580 c3         1 Q7H       0.109000
      3 O4          35.3370    38.7440    20.0460 os         1 Q7H      -0.346100
      4 C6          35.5650    30.3750    20.8280 c          1 Q7H       0.564100
      5 N1          36.8090    28.4550    16.6920 n3         1 Q7H      -0.731600
      6 C7          34.4740    31.4360    20.6910 c3         1 Q7H       0.077600
      7 C8          35.6800    32.9380    19.3200 ca         1 Q7H       0.140100
      8 N2          35.2060    29.1010    20.5810 n          1 Q7H      -0.424800
      9 C9          35.8140    32.0160    18.2920 ca         1 Q7H      -0.237000
     10 C10         36.4990    32.3380    17.1130 ca         1 Q7H       0.339000
     11 C11         37.0360    33.6130    16.9660 ca         1 Q7H      -0.148000
     12 C12         36.8780    34.5360    17.9930 ca         1 Q7H      -0.073000
     13 N3          36.6100    31.3080    16.1780 nu         1 Q7H      -0.946900
     14 C13         36.2190    34.2240    19.1680 ca         1 Q7H       0.061100
     15 C14         34.8890    35.8730    20.2380 c6         1 Q7H       0.225500
     16 C15         34.6540    36.7050    19.0170 c2         1 Q7H      -0.385200
     17 N4          37.0690    32.5180    14.2300 nb         1 Q7H      -0.290000
     18 C1          38.1660    27.9860    16.4650 c3         1 Q7H       0.142100
     19 C2          36.2330    27.9310    17.9240 c3         1 Q7H       0.161800
     20 C3          37.0600    28.2460    19.1640 c3         1 Q7H      -0.107400
     21 O1          36.7030    30.7050    21.1210 o          1 Q7H      -0.563100
     22 O2          35.0410    32.7020    20.4860 os         1 Q7H      -0.305100
     23 C16         34.8530    38.0240    19.0220 c2         1 Q7H       0.013100
     24 C17         35.8620    37.9820    21.1320 c6         1 Q7H       0.150600
     25 C18         34.9890    36.7840    21.4490 c6         1 Q7H      -0.109400
     26 C19         36.8000    31.3670    14.8400 ca         1 Q7H       0.440900
     27 C20         37.2840    32.5120    12.9130 ca         1 Q7H       0.179900
     28 N5          37.2760    31.4840    12.0930 nb         1 Q7H      -0.231000
     29 C21         36.9770    30.3360    12.7080 ca         1 Q7H       0.144500
     30 N6          36.8560    29.1220    12.1250 na         1 Q7H      -0.313400
     31 C22         36.5010    28.2000    13.0760 cc         1 Q7H      -0.174100
     32 C23         36.3830    28.8050    14.2940 cd         1 Q7H      -0.114400
     33 C24         35.9410    28.1450    15.5590 c3         1 Q7H       0.231000
     34 C25         36.7040    30.1840    14.0730 ca         1 Q7H      -0.244800
     35 H1          35.7980    27.1190    20.5100 h1         1 Q7H       0.056200
     36 H2          36.9360    28.1800    21.3120 h1         1 Q7H       0.056200
     37 H3          33.1530    29.2110    21.0650 h1         1 Q7H       0.038367
     38 H4          33.4730    28.9180    19.3490 h1         1 Q7H       0.038367
     39 H5          33.7260    27.6450    20.5400 h1         1 Q7H       0.038367
     40 H7          33.9050    31.5010    21.6220 h1         1 Q7H       0.067700
     41 H8          33.7590    31.1970    19.8970 h1         1 Q7H       0.067700
     42 H9          35.3880    31.0230    18.3680 ha         1 Q7H       0.113000
     43 H10         37.5690    33.8890    16.0720 ha         1 Q7H       0.150000
     44 H11         37.2980    35.5290    17.8860 ha         1 Q7H       0.127000
     45 H12         36.5910    30.3480    16.5510 hn         1 Q7H       0.546000
     46 H13         34.0590    35.1720    20.3690 h1         1 Q7H       0.054700
     47 H14         34.2630    36.2520    18.1170 ha         1 Q7H       0.193000
     48 H15         38.8230    28.3120    17.2680 h1         1 Q7H       0.040367
     49 H16         38.2250    26.8900    16.3940 h1         1 Q7H       0.040367
     50 H17         38.5540    28.4040    15.5370 h1         1 Q7H       0.040367
     51 H18         35.2360    28.3720    18.0200 h1         1 Q7H       0.030200
     52 H19         36.0810    26.8410    17.8580 h1         1 Q7H       0.030200
     53 H20         37.9180    27.5720    19.2280 hc         1 Q7H       0.066700
     54 H21         37.4650    29.2580    19.0970 hc         1 Q7H       0.066700
     55 H22         34.6120    38.6490    18.1690 h4         1 Q7H       0.206000
     56 H23         36.8740    37.6530    20.8760 h1         1 Q7H       0.060200
     57 H24         35.9300    38.6630    21.9790 h1         1 Q7H       0.060200
     58 H25         33.9860    37.1140    21.7290 hc         1 Q7H       0.064700
     59 H26         35.4010    36.2490    22.3070 hc         1 Q7H       0.064700
     60 H27         37.5000    33.4800    12.4730 h5         1 Q7H       0.045100
     61 H28         36.9850    28.9310    11.1450 hn         1 Q7H       0.364000
     62 H29         36.3460    27.1670    12.8100 h4         1 Q7H       0.215000
     63 H30         34.9340    28.4860    15.8190 h1         1 Q7H       0.040200
     64 H31         35.8670    27.0600    15.3920 h1         1 Q7H       0.040200
     65 C5          33.8220    28.7140    20.3640 c3         1 Q7H       0.093300
@<TRIPOS>BOND
     1     1    14 1   
     2     1    15 1   
     3     2     8 1   
     4     2    20 1   
     5     2    35 1   
     6     2    36 1   
     7     3    23 1   
     8     3    24 1   
     9     4     6 1   
    10     4     8 1   
    11     4    21 2   
    12     5    18 1   
    13     5    19 1   
    14     5    33 1   
    15     6    22 1   
    16     6    40 1   
    17     6    41 1   
    18     7     9 ar  
    19     7    14 ar  
    20     7    22 1   
    21     8    65 1   
    22     9    10 ar  
    23     9    42 1   
    24    10    11 ar  
    25    10    13 1   
    26    11    12 ar  
    27    11    43 1   
    28    12    14 ar  
    29    12    44 1   
    30    13    26 1   
    31    13    45 1   
    32    15    16 1   
    33    15    25 1   
    34    15    46 1   
    35    16    23 2   
    36    16    47 1   
    37    17    26 ar  
    38    17    27 ar  
    39    18    48 1   
    40    18    49 1   
    41    18    50 1   
    42    19    20 1   
    43    19    51 1   
    44    19    52 1   
    45    20    53 1   
    46    20    54 1   
    47    23    55 1   
    48    24    25 1   
    49    24    56 1   
    50    24    57 1   
    51    25    58 1   
    52    25    59 1   
    53    26    34 ar  
    54    27    28 ar  
    55    27    60 1   
    56    28    29 ar  
    57    29    30 1   
    58    29    34 ar  
    59    30    31 1   
    60    30    61 1   
    61    31    32 2   
    62    31    62 1   
    63    32    33 1   
    64    32    34 1   
    65    33    63 1   
    66    33    64 1   
    67    37    65 1   
    68    38    65 1   
    69    39    65 1   
@<TRIPOS>SUBSTRUCTURE
     1 Q7H         1 TEMP              0 ****  ****    0 ROOT
