@<TRIPOS>MOLECULE
Q7H
   65    69     1     0     0
SMALL
No Charge or Current Charge


@<TRIPOS>ATOM
      1 O3          36.2070    35.2010    20.1520 os         1 Q7H      -0.351100
      2 C4          36.3510    28.1670    20.5200 c3         1 Q7H       0.109000
      3 O4          35.1280    38.6920    19.8630 os         1 Q7H      -0.346100
      4 C6          35.3970    30.4410    20.9830 c          1 Q7H       0.564100
      5 N1          36.8200    28.5020    16.6550 n3         1 Q7H      -0.731600
      6 C7          34.2620    31.4490    20.6620 c3         1 Q7H       0.077600
      7 C8          35.6050    32.9970    19.2540 ca         1 Q7H       0.140100
      8 N2          35.1980    29.0920    20.6080 n          1 Q7H      -0.424800
      9 C9          35.7680    32.0410    18.2190 ca         1 Q7H      -0.237000
     10 C10         36.6290    32.2950    17.1390 ca         1 Q7H       0.339000
     11 C11         37.3680    33.4920    17.1140 ca         1 Q7H      -0.148000
     12 C12         37.2160    34.4470    18.1310 ca         1 Q7H      -0.073000
     13 N3          36.7290    31.3410    16.1250 nu         1 Q7H      -0.946900
     14 C13         36.3200    34.2210    19.1860 ca         1 Q7H       0.061100
     15 C14         34.9310    35.8340    20.3800 c6         1 Q7H       0.225500
     16 C15         34.4740    36.5290    19.1090 c2         1 Q7H      -0.385200
     17 N4          37.2780    32.5650    14.1870 nb         1 Q7H      -0.290000
     18 C1          38.1380    27.8860    16.3500 c3         1 Q7H       0.142100
     19 C2          36.2370    28.0370    17.9360 c3         1 Q7H       0.161800
     20 C3          37.1060    28.3210    19.1820 c3         1 Q7H      -0.107400
     21 O1          36.4770    30.8090    21.4330 o          1 Q7H      -0.563100
     22 O2          34.7830    32.7610    20.3460 os         1 Q7H      -0.305100
     23 C16         34.5760    37.8560    18.9210 c2         1 Q7H       0.013100
     24 C17         35.8030    38.1160    21.0080 c6         1 Q7H       0.150600
     25 C18         35.0580    36.8650    21.5200 c6         1 Q7H      -0.109400
     26 C19         36.9240    31.3940    14.7520 ca         1 Q7H       0.440900
     27 C20         37.4800    32.5610    12.8480 ca         1 Q7H       0.179900
     28 N5          37.3600    31.5020    12.0140 nb         1 Q7H      -0.231000
     29 C21         36.9890    30.3470    12.5920 ca         1 Q7H       0.144500
     30 N6          36.7580    29.0990    12.0460 na         1 Q7H      -0.313400
     31 C22         36.3390    28.1790    13.0290 cc         1 Q7H      -0.174100
     32 C23         36.3240    28.8990    14.2150 cd         1 Q7H      -0.114400
     33 C24         35.8540    28.3390    15.5410 c3         1 Q7H       0.231000
     34 C25         36.7520    30.2610    13.9420 ca         1 Q7H      -0.244800
     35 H1          36.0060    27.1290    20.6180 h1         1 Q7H       0.056200
     36 H2          37.0420    28.3550    21.3530 h1         1 Q7H       0.056200
     37 H3          33.1970    28.8980    21.2920 h1         1 Q7H       0.038367
     38 H4          33.4010    28.8060    19.5170 h1         1 Q7H       0.038367
     39 H5          33.8660    27.4270    20.5460 h1         1 Q7H       0.038367
     40 H7          33.6110    31.4970    21.5420 h1         1 Q7H       0.067700
     41 H8          33.6600    31.0700    19.8290 h1         1 Q7H       0.067700
     42 H9          35.2180    31.1070    18.2280 ha         1 Q7H       0.113000
     43 H10         38.0740    33.6880    16.3160 ha         1 Q7H       0.150000
     44 H11         37.7860    35.3720    18.0970 ha         1 Q7H       0.127000
     45 H12         36.6020    30.3670    16.4360 hn         1 Q7H       0.546000
     46 H13         34.1940    35.0770    20.6790 h1         1 Q7H       0.054700
     47 H14         34.0310    35.8910    18.3440 ha         1 Q7H       0.193000
     48 H15         38.8710    28.1060    17.1360 h1         1 Q7H       0.040367
     49 H16         38.0490    26.7960    16.2560 h1         1 Q7H       0.040367
     50 H17         38.5520    28.2780    15.4120 h1         1 Q7H       0.040367
     51 H18         35.2720    28.5420    18.0700 h1         1 Q7H       0.030200
     52 H19         36.0280    26.9600    17.8920 h1         1 Q7H       0.030200
     53 H20         37.9690    27.6460    19.1890 hc         1 Q7H       0.066700
     54 H21         37.4990    29.3430    19.1160 hc         1 Q7H       0.066700
     55 H22         34.2300    38.3650    18.0160 h4         1 Q7H       0.206000
     56 H23         36.8230    37.8370    20.7080 h1         1 Q7H       0.060200
     57 H24         35.8790    38.8750    21.8000 h1         1 Q7H       0.060200
     58 H25         34.0600    37.1520    21.8740 hc         1 Q7H       0.064700
     59 H26         35.5860    36.4260    22.3760 hc         1 Q7H       0.064700
     60 H27         37.7720    33.5070    12.3960 h5         1 Q7H       0.045100
     61 H28         36.8690    28.8890    11.0590 hn         1 Q7H       0.364000
     62 H29         36.0780    27.1460    12.8160 h4         1 Q7H       0.215000
     63 H30         34.9090    28.8410    15.7940 h1         1 Q7H       0.040200
     64 H31         35.6200    27.2740    15.4050 h1         1 Q7H       0.040200
     65 C5          33.8360    28.5220    20.4830 c3         1 Q7H       0.093300
@<TRIPOS>BOND
     1     1    14 1   
     2     1    15 1   
     3     2     8 1   
     4     2    20 1   
     5     2    35 1   
     6     2    36 1   
     7     3    23 1   
     8     3    24 1   
     9     4     6 1   
    10     4     8 1   
    11     4    21 2   
    12     5    18 1   
    13     5    19 1   
    14     5    33 1   
    15     6    22 1   
    16     6    40 1   
    17     6    41 1   
    18     7     9 ar  
    19     7    14 ar  
    20     7    22 1   
    21     8    65 1   
    22     9    10 ar  
    23     9    42 1   
    24    10    11 ar  
    25    10    13 1   
    26    11    12 ar  
    27    11    43 1   
    28    12    14 ar  
    29    12    44 1   
    30    13    26 1   
    31    13    45 1   
    32    15    16 1   
    33    15    25 1   
    34    15    46 1   
    35    16    23 2   
    36    16    47 1   
    37    17    26 ar  
    38    17    27 ar  
    39    18    48 1   
    40    18    49 1   
    41    18    50 1   
    42    19    20 1   
    43    19    51 1   
    44    19    52 1   
    45    20    53 1   
    46    20    54 1   
    47    23    55 1   
    48    24    25 1   
    49    24    56 1   
    50    24    57 1   
    51    25    58 1   
    52    25    59 1   
    53    26    34 ar  
    54    27    28 ar  
    55    27    60 1   
    56    28    29 ar  
    57    29    30 1   
    58    29    34 ar  
    59    30    31 1   
    60    30    61 1   
    61    31    32 2   
    62    31    62 1   
    63    32    33 1   
    64    32    34 1   
    65    33    63 1   
    66    33    64 1   
    67    37    65 1   
    68    38    65 1   
    69    39    65 1   
@<TRIPOS>SUBSTRUCTURE
     1 Q7H         1 TEMP              0 ****  ****    0 ROOT
