@<TRIPOS>MOLECULE
Q7K
   67    71     1     0     0
SMALL
abcg2


@<TRIPOS>ATOM
      1 O3          32.0050    28.7910     0.5480 os         1 Q7K      -0.343100
      2 C4          37.2130    28.4790    -4.2320 c3         1 Q7K       0.109000
      3 O4          28.3570    30.6920     1.1960 os         1 Q7K      -0.449000
      4 C6          35.0390    28.7800    -3.2470 c          1 Q7K       0.565100
      5 N1          39.1490    30.3420    -1.5130 n3         1 Q7K      -0.729600
      6 C7          33.8710    29.7220    -2.9530 c3         1 Q7K       0.076600
      7 C8          33.9500    29.6020    -0.5920 ca         1 Q7K       0.143100
      8 N2          35.9680    29.2300    -4.1100 n          1 Q7K      -0.425800
      9 C9          35.2420    30.1020    -0.5260 ca         1 Q7K      -0.237000
     10 C10         35.8930    30.2780     0.7020 ca         1 Q7K       0.342000
     11 C11         35.2190    29.9600     1.8780 ca         1 Q7K      -0.147000
     12 C12         33.9150    29.4840     1.8030 ca         1 Q7K      -0.076000
     13 N3          37.2060    30.7440     0.6290 nu         1 Q7K      -0.946900
     14 C13         33.2690    29.2970     0.5960 ca         1 Q7K       0.054100
     15 C14         30.9530    29.7480     0.3970 c6         1 Q7K       0.177300
     16 C15         30.7470    30.5900     1.6480 c6         1 Q7K      -0.128900
     17 N4          37.5130    31.5680     2.7950 nb         1 Q7K      -0.289000
     18 C1          40.2010    29.4220    -1.1140 c3         1 Q7K       0.141100
     19 C2          38.6480    30.0580    -2.8530 c3         1 Q7K       0.160800
     20 C3          38.1190    28.6390    -3.0140 c3         1 Q7K      -0.106400
     21 O1          35.1110    27.7000    -2.6850 o          1 Q7K      -0.562100
     22 O2          33.2610    29.3940    -1.7340 os         1 Q7K      -0.304100
     23 C16         29.5060    31.4580     1.4820 c6         1 Q7K       0.155600
     24 C17         28.5050    29.9490     0.0060 c6         1 Q7K       0.155600
     25 C18         29.6810    28.9830     0.0800 c6         1 Q7K      -0.128900
     26 C19         37.9380    31.4240     1.5420 ca         1 Q7K       0.440900
     27 C20         38.2890    32.2140     3.6670 ca         1 Q7K       0.178900
     28 N5          39.4730    32.7470     3.4600 nb         1 Q7K      -0.230000
     29 C21         39.8800    32.6230     2.1930 ca         1 Q7K       0.144500
     30 N6          41.0310    33.1060     1.6720 na         1 Q7K      -0.313400
     31 C22         41.0720    32.8170     0.3320 cc         1 Q7K      -0.173100
     32 C23         39.9450    32.1420    -0.0380 cd         1 Q7K      -0.114400
     33 C24         39.5910    31.7310    -1.4280 c3         1 Q7K       0.231000
     34 C25         39.1710    31.9960     1.1610 ca         1 Q7K      -0.242800
     35 H1          36.9890    27.4230    -4.3830 h1         1 Q7K       0.056200
     36 H2          37.7210    28.8230    -5.1330 h1         1 Q7K       0.056200
     37 H3          34.7930    30.5260    -5.2950 h1         1 Q7K       0.038700
     38 H4          35.9690    31.3570    -4.2640 h1         1 Q7K       0.038700
     39 H5          36.4970    30.4710    -5.6890 h1         1 Q7K       0.038700
     40 H7          34.1790    30.7730    -2.9660 h1         1 Q7K       0.068200
     41 H8          33.1020    29.6060    -3.7210 h1         1 Q7K       0.068200
     42 H9          35.7810    30.3800    -1.4230 ha         1 Q7K       0.114000
     43 H10         35.6920    30.0840     2.8370 ha         1 Q7K       0.151000
     44 H11         33.3910    29.2330     2.7170 ha         1 Q7K       0.126000
     45 H12         37.7150    30.5360    -0.2400 hn         1 Q7K       0.546000
     46 H13         31.1800    30.4170    -0.4440 h1         1 Q7K       0.039700
     47 H14         30.6340    29.9340     2.5180 hc         1 Q7K       0.062200
     48 H15         31.6050    31.2410     1.8350 hc         1 Q7K       0.062200
     49 H16         40.5830    29.6940    -0.1310 h1         1 Q7K       0.040367
     50 H17         39.8150    28.4070    -1.0440 h1         1 Q7K       0.040367
     51 H18         41.0460    29.4210    -1.8170 h1         1 Q7K       0.040367
     52 H19         39.4240    30.2430    -3.6130 h1         1 Q7K       0.029700
     53 H20         37.8490    30.7790    -3.0510 h1         1 Q7K       0.029700
     54 H21         37.5760    28.3370    -2.1160 hc         1 Q7K       0.066700
     55 H22         38.9460    27.9330    -3.1250 hc         1 Q7K       0.066700
     56 H23         29.6820    32.1970     0.6860 h1         1 Q7K       0.042950
     57 H24         29.3040    32.0110     2.4010 h1         1 Q7K       0.042950
     58 H25         28.6380    30.6240    -0.8510 h1         1 Q7K       0.042950
     59 H26         27.5740    29.4020    -0.1490 h1         1 Q7K       0.042950
     60 H27         29.4980    28.2370     0.8590 hc         1 Q7K       0.062200
     61 H28         29.7740    28.4550    -0.8720 hc         1 Q7K       0.062200
     62 H29         37.8890    32.2990     4.6720 h5         1 Q7K       0.045100
     63 H30         41.7360    33.6110     2.1830 hn         1 Q7K       0.364000
     64 H31         41.9110    33.1270    -0.2710 h4         1 Q7K       0.215000
     65 H32         40.4480    31.9260    -2.0910 h1         1 Q7K       0.039700
     66 H33         38.7710    32.3550    -1.7980 h1         1 Q7K       0.039700
     67 C5          35.7910    30.4610    -4.8630 c3         1 Q7K       0.093300
@<TRIPOS>BOND
     1     1    14 1   
     2     1    15 1   
     3     2     8 1   
     4     2    20 1   
     5     2    35 1   
     6     2    36 1   
     7     3    23 1   
     8     3    24 1   
     9     4     6 1   
    10     4     8 1   
    11     4    21 2   
    12     5    18 1   
    13     5    19 1   
    14     5    33 1   
    15     6    22 1   
    16     6    40 1   
    17     6    41 1   
    18     7     9 ar  
    19     7    14 ar  
    20     7    22 1   
    21     8    67 1   
    22     9    10 ar  
    23     9    42 1   
    24    10    11 ar  
    25    10    13 1   
    26    11    12 ar  
    27    11    43 1   
    28    12    14 ar  
    29    12    44 1   
    30    13    26 1   
    31    13    45 1   
    32    15    16 1   
    33    15    25 1   
    34    15    46 1   
    35    16    23 1   
    36    16    47 1   
    37    16    48 1   
    38    17    26 ar  
    39    17    27 ar  
    40    18    49 1   
    41    18    50 1   
    42    18    51 1   
    43    19    20 1   
    44    19    52 1   
    45    19    53 1   
    46    20    54 1   
    47    20    55 1   
    48    23    56 1   
    49    23    57 1   
    50    24    25 1   
    51    24    58 1   
    52    24    59 1   
    53    25    60 1   
    54    25    61 1   
    55    26    34 ar  
    56    27    28 ar  
    57    27    62 1   
    58    28    29 ar  
    59    29    30 1   
    60    29    34 ar  
    61    30    31 1   
    62    30    63 1   
    63    31    32 2   
    64    31    64 1   
    65    32    33 1   
    66    32    34 1   
    67    33    65 1   
    68    33    66 1   
    69    37    67 1   
    70    38    67 1   
    71    39    67 1   
@<TRIPOS>SUBSTRUCTURE
     1 Q7K         1 TEMP              0 ****  ****    0 ROOT
