@<TRIPOS>MOLECULE
Q7K
   67    71     1     0     0
SMALL
No Charge or Current Charge


@<TRIPOS>ATOM
      1 O3          32.0470    28.8150     0.9360 os         1 Q7K      -0.343100
      2 C4          36.9670    28.5520    -4.1590 c3         1 Q7K       0.109000
      3 O4          28.3790    30.8250     0.6560 os         1 Q7K      -0.449000
      4 C6          34.6900    29.0770    -3.2460 c          1 Q7K       0.565100
      5 N1          39.1130    30.3550    -1.4380 n3         1 Q7K      -0.729600
      6 C7          33.7030    30.1950    -2.8190 c3         1 Q7K       0.076600
      7 C8          33.9020    29.8640    -0.3590 ca         1 Q7K       0.143100
      8 N2          35.7970    29.4520    -4.0410 n          1 Q7K      -0.425800
      9 C9          35.2440    30.3250    -0.3390 ca         1 Q7K      -0.237000
     10 C10         36.0250    30.2210     0.8220 ca         1 Q7K       0.342000
     11 C11         35.4800    29.6080     1.9620 ca         1 Q7K      -0.147000
     12 C12         34.1550    29.1480     1.9610 ca         1 Q7K      -0.076000
     13 N3          37.3270    30.7230     0.8030 nu         1 Q7K      -0.946900
     14 C13         33.3460    29.2940     0.8230 ca         1 Q7K       0.054100
     15 C14         30.9130    29.4690     0.3220 c6         1 Q7K       0.177300
     16 C15         30.8200    30.9600     0.7460 c6         1 Q7K      -0.128900
     17 N4          37.7590    31.3690     3.0270 nb         1 Q7K      -0.289000
     18 C1          40.2500    29.4430    -1.1450 c3         1 Q7K       0.141100
     19 C2          38.4890    30.1100    -2.7600 c3         1 Q7K       0.160800
     20 C3          37.9160    28.6880    -2.9490 c3         1 Q7K      -0.106400
     21 O1          34.5900    27.9320    -2.8170 o          1 Q7K      -0.562100
     22 O2          33.1370    29.9410    -1.5120 os         1 Q7K      -0.304100
     23 C16         29.5160    31.5930     0.2090 c6         1 Q7K       0.155600
     24 C17         28.3750    29.4600     0.1910 c6         1 Q7K       0.155600
     25 C18         29.6210    28.7220     0.7290 c6         1 Q7K      -0.128900
     26 C19         38.1460    31.3410     1.7370 ca         1 Q7K       0.440900
     27 C20         38.6020    31.9620     3.9060 ca         1 Q7K       0.178900
     28 N5          39.7940    32.5360     3.6220 nb         1 Q7K      -0.230000
     29 C21         40.1550    32.5160     2.3280 ca         1 Q7K       0.144500
     30 N6          41.2770    33.0190     1.6970 na         1 Q7K      -0.313400
     31 C22         41.2180    32.8080     0.3040 cc         1 Q7K      -0.173100
     32 C23         40.0180    32.1460     0.0880 cd         1 Q7K      -0.114400
     33 C24         39.4850    31.7830    -1.2820 c3         1 Q7K       0.231000
     34 C25         39.3570    31.9460     1.3670 ca         1 Q7K      -0.242800
     35 H1          36.6270    27.5110    -4.2420 h1         1 Q7K       0.056200
     36 H2          37.5230    28.7810    -5.0770 h1         1 Q7K       0.056200
     37 H3          34.7600    30.7140    -5.3990 h1         1 Q7K       0.038700
     38 H4          35.9200    31.5510    -4.3240 h1         1 Q7K       0.038700
     39 H5          36.5100    30.5860    -5.7020 h1         1 Q7K       0.038700
     40 H7          34.2180    31.1620    -2.8270 h1         1 Q7K       0.068200
     41 H8          32.9120    30.2380    -3.5770 h1         1 Q7K       0.068200
     42 H9          35.6900    30.7880    -1.2110 ha         1 Q7K       0.114000
     43 H10         36.0790    29.4710     2.8550 ha         1 Q7K       0.151000
     44 H11         33.7450    28.6830     2.8540 ha         1 Q7K       0.126000
     45 H12         37.8030    30.6550    -0.1090 hn         1 Q7K       0.546000
     46 H13         30.9920    29.4000    -0.7700 h1         1 Q7K       0.039700
     47 H14         30.8450    31.0420     1.8410 hc         1 Q7K       0.062200
     48 H15         31.6800    31.5250     0.3640 hc         1 Q7K       0.062200
     49 H16         40.6650    29.6340    -0.1470 h1         1 Q7K       0.040367
     50 H17         39.9320    28.3930    -1.1610 h1         1 Q7K       0.040367
     51 H18         41.0560    29.5720    -1.8800 h1         1 Q7K       0.040367
     52 H19         39.2100    30.3090    -3.5640 h1         1 Q7K       0.029700
     53 H20         37.6690    30.8290    -2.8830 h1         1 Q7K       0.029700
     54 H21         37.3720    28.3990    -2.0420 hc         1 Q7K       0.066700
     55 H22         38.7380    27.9740    -3.0700 hc         1 Q7K       0.066700
     56 H23         29.5280    31.6200    -0.8900 h1         1 Q7K       0.042950
     57 H24         29.4200    32.6240     0.5770 h1         1 Q7K       0.042950
     58 H25         28.3680    29.4490    -0.9090 h1         1 Q7K       0.042950
     59 H26         27.4610    28.9630     0.5450 h1         1 Q7K       0.042950
     60 H27         29.5590    28.6470     1.8230 hc         1 Q7K       0.062200
     61 H28         29.6430    27.6960     0.3390 hc         1 Q7K       0.062200
     62 H29         38.2890    31.9760     4.9480 h5         1 Q7K       0.045100
     63 H30         42.0330    33.4880     2.1860 hn         1 Q7K       0.364000
     64 H31         41.9840    33.1470    -0.3900 h4         1 Q7K       0.215000
     65 H32         40.2410    32.0540    -2.0320 h1         1 Q7K       0.039700
     66 H33         38.6080    32.4170    -1.4720 h1         1 Q7K       0.039700
     67 C5          35.7440    30.6460    -4.9180 c3         1 Q7K       0.093300
@<TRIPOS>BOND
     1     1    14 1   
     2     1    15 1   
     3     2     8 1   
     4     2    20 1   
     5     2    35 1   
     6     2    36 1   
     7     3    23 1   
     8     3    24 1   
     9     4     6 1   
    10     4     8 1   
    11     4    21 2   
    12     5    18 1   
    13     5    19 1   
    14     5    33 1   
    15     6    22 1   
    16     6    40 1   
    17     6    41 1   
    18     7     9 ar  
    19     7    14 ar  
    20     7    22 1   
    21     8    67 1   
    22     9    10 ar  
    23     9    42 1   
    24    10    11 ar  
    25    10    13 1   
    26    11    12 ar  
    27    11    43 1   
    28    12    14 ar  
    29    12    44 1   
    30    13    26 1   
    31    13    45 1   
    32    15    16 1   
    33    15    25 1   
    34    15    46 1   
    35    16    23 1   
    36    16    47 1   
    37    16    48 1   
    38    17    26 ar  
    39    17    27 ar  
    40    18    49 1   
    41    18    50 1   
    42    18    51 1   
    43    19    20 1   
    44    19    52 1   
    45    19    53 1   
    46    20    54 1   
    47    20    55 1   
    48    23    56 1   
    49    23    57 1   
    50    24    25 1   
    51    24    58 1   
    52    24    59 1   
    53    25    60 1   
    54    25    61 1   
    55    26    34 ar  
    56    27    28 ar  
    57    27    62 1   
    58    28    29 ar  
    59    29    30 1   
    60    29    34 ar  
    61    30    31 1   
    62    30    63 1   
    63    31    32 2   
    64    31    64 1   
    65    32    33 1   
    66    32    34 1   
    67    33    65 1   
    68    33    66 1   
    69    37    67 1   
    70    38    67 1   
    71    39    67 1   
@<TRIPOS>SUBSTRUCTURE
     1 Q7K         1 TEMP              0 ****  ****    0 ROOT
