@<TRIPOS>MOLECULE
Q7M
   55    59     1     0     0
SMALL
No Charge or Current Charge


@<TRIPOS>ATOM
      1 F36          8.1420     0.2660    -3.2390 f          1 Q7M      -0.111667
      2 C33          8.2380    -0.4130    -2.0740 c3         1 Q7M       0.355300
      3 F37          7.5270    -1.5550    -2.2230 f          1 Q7M      -0.111667
      4 F35          9.5330    -0.7810    -1.9380 f          1 Q7M      -0.111667
      5 C29          7.7310     0.4280    -0.8950 ca         1 Q7M      -0.166300
      6 C28          6.3420     0.5620    -0.6700 ca         1 Q7M      -0.088000
      7 C30          8.6320     1.0960    -0.0370 ca         1 Q7M      -0.086000
      8 C31          8.1510     1.8690     1.0300 ca         1 Q7M      -0.085000
      9 C32          6.7700     1.9880     1.2500 ca         1 Q7M      -0.144000
     10 C27          5.8520     1.3390     0.4050 ca         1 Q7M      -0.010000
     11 N26          4.4680     1.5130     0.6890 ns         1 Q7M      -0.161000
     12 C25          3.3190     1.0140     0.0920 c          1 Q7M       0.672100
     13 O34          3.3160     0.2620    -0.8760 o          1 Q7M      -0.593100
     14 N24          2.1760     1.4750     0.7290 ns         1 Q7M      -0.161000
     15 C17          0.7910     1.2450     0.5000 ca         1 Q7M       0.011000
     16 C16         -0.1250     1.9240     1.3260 ca         1 Q7M      -0.152500
     17 C15         -1.5100     1.7480     1.1620 ca         1 Q7M      -0.062000
     18 C18          0.2940     0.3760    -0.4960 ca         1 Q7M      -0.152500
     19 C19         -1.0920     0.1990    -0.6610 ca         1 Q7M      -0.062000
     20 C14         -1.9990     0.8870     0.1640 ca         1 Q7M      -0.044200
     21 N11         -3.3740     0.7060    -0.0010 na         1 Q7M      -0.165200
     22 C10         -4.2400     1.7280    -0.4190 cc         1 Q7M       0.311900
     23 N21         -3.7790     2.9360    -0.8320 nv         1 Q7M      -0.969000
     24 C12         -4.0490    -0.4760     0.2600 ca         1 Q7M       0.367500
     25 C8          -5.3930    -0.2100     0.0110 ca         1 Q7M       0.416800
     26 C9          -5.5050     1.1750    -0.3990 cd         1 Q7M      -0.458000
     27 C22         -6.7730     1.8540    -0.7120 c          1 Q7M       0.640300
     28 N4          -6.6990     3.1890    -0.8550 nt         1 Q7M      -0.608000
     29 O23         -7.8500     1.2980    -0.8190 o          1 Q7M      -0.573100
     30 N13         -3.6150    -1.6950     0.6750 nb         1 Q7M      -0.645000
     31 C4          -4.5920    -2.6350     0.8310 ca         1 Q7M       0.227000
     32 C5          -5.9830    -2.3410     0.5720 ca         1 Q7M       0.227000
     33 N7          -6.3920    -1.1080     0.1570 nb         1 Q7M      -0.597000
     34 C3          -4.2380    -3.9280     1.2570 ca         1 Q7M      -0.081000
     35 C2          -5.2110    -4.9260     1.4320 ca         1 Q7M      -0.107000
     36 C1          -6.5610    -4.6410     1.1810 ca         1 Q7M      -0.109000
     37 C6          -6.9400    -3.3570     0.7550 ca         1 Q7M      -0.073000
     38 H28          5.6590     0.0560    -1.3450 ha         1 Q7M       0.164000
     39 H30          9.7070     1.0220    -0.1930 ha         1 Q7M       0.136000
     40 H31          8.8520     2.3790     1.6880 ha         1 Q7M       0.123000
     41 H32          6.4140     2.5910     2.0820 ha         1 Q7M       0.113000
     42 HN26         4.2930     2.1180     1.4800 hn         1 Q7M       0.149000
     43 HN24         2.3590     2.0940     1.5080 hn         1 Q7M       0.148000
     44 H16          0.2360     2.5950     2.1030 ha         1 Q7M       0.136500
     45 H15         -2.2020     2.2780     1.8140 ha         1 Q7M       0.133500
     46 H18          0.9600    -0.1750    -1.1520 ha         1 Q7M       0.136500
     47 H19         -1.4600    -0.4760    -1.4310 ha         1 Q7M       0.133500
     48 H212        -2.7690     3.0630    -0.8030 hn         1 Q7M       0.504500
     49 H211        -4.2070     3.3460    -1.6590 hn         1 Q7M       0.504500
     50 HN41        -5.8270     3.6540    -0.6520 hn         1 Q7M       0.290500
     51 HN42        -7.5380     3.7150    -1.0440 hn         1 Q7M       0.290500
     52 H3          -3.1940    -4.1590     1.4550 ha         1 Q7M       0.128000
     53 H2          -4.9170    -5.9200     1.7630 ha         1 Q7M       0.116000
     54 H1          -7.3150    -5.4130     1.3170 ha         1 Q7M       0.116000
     55 H6          -7.9890    -3.1440     0.5630 ha         1 Q7M       0.135000
@<TRIPOS>BOND
     1     1     2 1   
     2     2     3 1   
     3     2     4 1   
     4     2     5 1   
     5     5     6 ar  
     6     5     7 ar  
     7     6    10 ar  
     8     6    38 1   
     9     7     8 ar  
    10     7    39 1   
    11     8     9 ar  
    12     8    40 1   
    13     9    10 ar  
    14     9    41 1   
    15    10    11 1   
    16    11    12 1   
    17    11    42 1   
    18    12    13 2   
    19    12    14 1   
    20    14    15 1   
    21    14    43 1   
    22    15    16 ar  
    23    15    18 ar  
    24    16    17 ar  
    25    16    44 1   
    26    17    20 ar  
    27    17    45 1   
    28    18    19 ar  
    29    18    46 1   
    30    19    20 ar  
    31    19    47 1   
    32    20    21 1   
    33    21    22 1   
    34    21    24 1   
    35    22    23 1   
    36    22    26 2   
    37    23    48 1   
    38    23    49 1   
    39    24    25 ar  
    40    24    30 ar  
    41    25    26 1   
    42    25    33 ar  
    43    26    27 1   
    44    27    28 1   
    45    27    29 2   
    46    28    50 1   
    47    28    51 1   
    48    30    31 ar  
    49    31    32 ar  
    50    31    34 ar  
    51    32    33 ar  
    52    32    37 ar  
    53    34    35 ar  
    54    34    52 1   
    55    35    36 ar  
    56    35    53 1   
    57    36    37 ar  
    58    36    54 1   
    59    37    55 1   
@<TRIPOS>SUBSTRUCTURE
     1 Q7M         1 TEMP              0 ****  ****    0 ROOT
