@<TRIPOS>MOLECULE
Q7M
   55    59     1     0     0
SMALL
bcc


@<TRIPOS>ATOM
      1 F36          7.6100     0.2650    -3.2620 f          1 Q7M      -0.232967
      2 C33          7.7990    -0.4630    -2.1500 c3         1 Q7M       0.719200
      3 F37          7.0440    -1.5620    -2.2850 f          1 Q7M      -0.232967
      4 F35          9.0740    -0.8630    -2.1600 f          1 Q7M      -0.232967
      5 C29          7.4470     0.3120    -0.9180 ca         1 Q7M      -0.166300
      6 C28          6.0990     0.5660    -0.6780 ca         1 Q7M      -0.106000
      7 C30          8.4370     0.7870    -0.0730 ca         1 Q7M      -0.104000
      8 C31          8.0600     1.5300     1.0380 ca         1 Q7M      -0.103000
      9 C32          6.7290     1.7840     1.2960 ca         1 Q7M      -0.162000
     10 C27          5.7290     1.3040     0.4430 ca         1 Q7M       0.082600
     11 N26          4.4160     1.6230     0.7820 ns         1 Q7M      -0.487100
     12 C25          3.2600     1.1300     0.2420 c          1 Q7M       0.806100
     13 O34          3.2250     0.3360    -0.6800 o          1 Q7M      -0.593100
     14 N24          2.1450     1.6350     0.8590 ns         1 Q7M      -0.487100
     15 C17          0.8100     1.3610     0.5860 ca         1 Q7M       0.103600
     16 C16         -0.1240     1.8430     1.5090 ca         1 Q7M      -0.170500
     17 C15         -1.4770     1.6420     1.3230 ca         1 Q7M      -0.080000
     18 C18          0.3520     0.6700    -0.5400 ca         1 Q7M      -0.170500
     19 C19         -1.0080     0.4760    -0.7210 ca         1 Q7M      -0.080000
     20 C14         -1.9250     0.9560     0.2020 ca         1 Q7M      -0.044200
     21 N11         -3.3120     0.7510     0.0010 na         1 Q7M      -0.166200
     22 C10         -4.1920     1.6720    -0.5160 cc         1 Q7M       0.311900
     23 N21         -3.7550     2.8790    -0.8650 nv         1 Q7M      -0.858600
     24 C12         -3.9910    -0.4180     0.2550 ca         1 Q7M       0.367500
     25 C8          -5.3670    -0.2160    -0.1240 ca         1 Q7M       0.416800
     26 C9          -5.4800     1.1280    -0.5910 cd         1 Q7M      -0.458000
     27 C22         -6.6890     1.7530    -1.1090 c          1 Q7M       0.707300
     28 N4          -6.7130     3.1170    -1.0880 nt         1 Q7M      -0.675000
     29 O23         -7.6140     1.0960    -1.5670 o          1 Q7M      -0.573100
     30 N13         -3.4970    -1.4980     0.7420 nb         1 Q7M      -0.645000
     31 C4          -4.4020    -2.5100     0.8920 ca         1 Q7M       0.292300
     32 C5          -5.7670    -2.3380     0.5310 ca         1 Q7M       0.292300
     33 N7          -6.2430    -1.1710     0.0180 nb         1 Q7M      -0.597000
     34 C3          -3.9730    -3.7430     1.4170 ca         1 Q7M      -0.164300
     35 C2          -4.8630    -4.7740     1.5840 ca         1 Q7M      -0.125000
     36 C1          -6.2150    -4.6080     1.2300 ca         1 Q7M      -0.127000
     37 C6          -6.6560    -3.4170     0.7140 ca         1 Q7M      -0.156300
     38 H28          5.3470     0.1950    -1.3560 ha         1 Q7M       0.182000
     39 H30          9.4840     0.5920    -0.2590 ha         1 Q7M       0.154000
     40 H31          8.8150     1.9090     1.7130 ha         1 Q7M       0.141000
     41 H32          6.4540     2.3600     2.1720 ha         1 Q7M       0.131000
     42 HN26         4.3320     2.2510     1.5680 hn         1 Q7M       0.315500
     43 HN24         2.2910     2.2350     1.6570 hn         1 Q7M       0.314500
     44 H16          0.2150     2.3750     2.3890 ha         1 Q7M       0.154500
     45 H15         -2.1820     2.0170     2.0530 ha         1 Q7M       0.151500
     46 H18          1.0350     0.2890    -1.2790 ha         1 Q7M       0.154500
     47 H19         -1.3550    -0.0520    -1.6000 ha         1 Q7M       0.151500
     48 H212        -2.7660     3.0690    -0.9130 hn         1 Q7M       0.449300
     49 H211        -4.3470     3.4760    -1.4200 hn         1 Q7M       0.449300
     50 HN41        -6.2400     3.6040    -0.3420 hn         1 Q7M       0.290500
     51 HN42        -7.5740     3.5570    -1.3770 hn         1 Q7M       0.290500
     52 H3          -2.9300    -3.8560     1.6840 ha         1 Q7M       0.146000
     53 H2          -4.5250    -5.7180     1.9900 ha         1 Q7M       0.134000
     54 H1          -6.9090    -5.4260     1.3680 ha         1 Q7M       0.134000
     55 H6          -7.6940    -3.2790     0.4380 ha         1 Q7M       0.153000
@<TRIPOS>BOND
     1     1     2 1   
     2     2     3 1   
     3     2     4 1   
     4     2     5 1   
     5     5     6 ar  
     6     5     7 ar  
     7     6    10 ar  
     8     6    38 1   
     9     7     8 ar  
    10     7    39 1   
    11     8     9 ar  
    12     8    40 1   
    13     9    10 ar  
    14     9    41 1   
    15    10    11 1   
    16    11    12 1   
    17    11    42 1   
    18    12    13 2   
    19    12    14 1   
    20    14    15 1   
    21    14    43 1   
    22    15    16 ar  
    23    15    18 ar  
    24    16    17 ar  
    25    16    44 1   
    26    17    20 ar  
    27    17    45 1   
    28    18    19 ar  
    29    18    46 1   
    30    19    20 ar  
    31    19    47 1   
    32    20    21 1   
    33    21    22 1   
    34    21    24 1   
    35    22    23 1   
    36    22    26 2   
    37    23    48 1   
    38    23    49 1   
    39    24    25 ar  
    40    24    30 ar  
    41    25    26 1   
    42    25    33 ar  
    43    26    27 1   
    44    27    28 1   
    45    27    29 2   
    46    28    50 1   
    47    28    51 1   
    48    30    31 ar  
    49    31    32 ar  
    50    31    34 ar  
    51    32    33 ar  
    52    32    37 ar  
    53    34    35 ar  
    54    34    52 1   
    55    35    36 ar  
    56    35    53 1   
    57    36    37 ar  
    58    36    54 1   
    59    37    55 1   
@<TRIPOS>SUBSTRUCTURE
     1 Q7M         1 TEMP              0 ****  ****    0 ROOT
