@<TRIPOS>MOLECULE
Q7Q
   60    63     1     0     0
SMALL
No Charge or Current Charge


@<TRIPOS>ATOM
      1 O3          27.7520    29.7260    13.3610 os         1 Q7Q      -0.289100
      2 C4          29.9620    28.8300    12.9880 ca         1 Q7Q       0.096100
      3 C5          31.1300    28.7540    12.1940 ca         1 Q7Q      -0.150000
      4 C6          31.2240    29.4970    11.0030 ca         1 Q7Q      -0.127000
      5 N1          26.5400    33.2100    12.7350 n          1 Q7Q      -0.422800
      6 C7          30.1630    30.3220    10.5880 ca         1 Q7Q       0.311000
      7 C8          29.0250    30.4250    11.3930 ca         1 Q7Q      -0.227000
      8 N2          28.1590    33.0640     8.7720 n7         1 Q7Q      -0.887400
      9 C9          28.9030    29.6770    12.5850 ca         1 Q7Q       0.136100
     10 C10         26.6740    30.6620    13.1060 c3         1 Q7Q       0.078600
     11 C11         27.0680    32.1200    13.4770 c          1 Q7Q       0.568100
     12 C12         26.9060    34.5970    13.1140 c3         1 Q7Q       0.080300
     13 N3          30.9580    32.7590     5.1320 na         1 Q7Q      -0.313400
     14 C13         25.5510    33.0510    11.6360 c3         1 Q7Q       0.109000
     15 C14         26.1740    32.8020    10.2360 c3         1 Q7Q      -0.111400
     16 C15         27.4460    33.6270     9.9320 c3         1 Q7Q       0.155800
     17 N4          31.9360    30.5570     5.6740 nb         1 Q7Q      -0.232000
     18 C1          29.9120    27.0620    18.2750 c3         1 Q7Q       0.145900
     19 O1          30.3570    27.5460    16.9980 os         1 Q7Q      -0.435000
     20 C2          30.3590    26.5540    15.9510 c3         1 Q7Q       0.159600
     21 C3          30.8480    27.2080    14.6390 c3         1 Q7Q       0.162600
     22 O2          29.8230    28.1010    14.1570 os         1 Q7Q      -0.315100
     23 C16         29.3260    33.8500     8.3340 c3         1 Q7Q       0.230000
     24 C17         30.0130    33.1660     7.1800 cc         1 Q7Q      -0.116400
     25 C18         30.1990    33.6750     5.9010 cd         1 Q7Q      -0.173100
     26 C19         31.2430    31.6780     5.9450 ca         1 Q7Q       0.145500
     27 C20         32.0330    29.6620     6.6850 ca         1 Q7Q       0.179900
     28 N5          31.5000    29.7780     7.9230 nb         1 Q7Q      -0.290000
     29 C21         30.8180    30.9110     8.1780 ca         1 Q7Q       0.437900
     30 N6          30.1910    31.0580     9.4040 nu         1 Q7Q      -0.934900
     31 C22         30.6800    31.8870     7.1790 ca         1 Q7Q      -0.242800
     32 H1          31.9680    28.1240    12.4790 ha         1 Q7Q       0.117000
     33 H2          32.1310    29.4320    10.4100 ha         1 Q7Q       0.150000
     34 H3          28.2330    31.0770    11.0640 ha         1 Q7Q       0.117000
     35 H4          27.5050    33.0320     7.9780 hn         1 Q7Q       0.420000
     36 H6          26.3500    30.5980    12.0640 h1         1 Q7Q       0.067700
     37 H7          25.8050    30.4110    13.7240 h1         1 Q7Q       0.067700
     38 H8          27.9990    34.6970    13.1530 h1         1 Q7Q       0.044367
     39 H9          26.5180    35.3160    12.3810 h1         1 Q7Q       0.044367
     40 H10         26.4880    34.8330    14.1000 h1         1 Q7Q       0.044367
     41 H11         31.2500    32.8690     4.1650 hn         1 Q7Q       0.364000
     42 H12         24.9540    33.9720    11.5790 h1         1 Q7Q       0.050200
     43 H13         24.8440    32.2470    11.8770 h1         1 Q7Q       0.050200
     44 H14         25.4170    33.0150     9.4720 hc         1 Q7Q       0.053700
     45 H15         26.3950    31.7350    10.1340 hc         1 Q7Q       0.053700
     46 H16         28.1210    33.6090    10.7970 h1         1 Q7Q       0.043200
     47 H17         27.1600    34.6730     9.7540 h1         1 Q7Q       0.043200
     48 H18         29.9370    27.8680    19.0190 h1         1 Q7Q       0.027367
     49 H19         28.8810    26.6870    18.2130 h1         1 Q7Q       0.027367
     50 H20         30.5570    26.2480    18.6310 h1         1 Q7Q       0.027367
     51 H21         29.3540    26.1370    15.8010 h1         1 Q7Q       0.029200
     52 H22         31.0360    25.7300    16.2090 h1         1 Q7Q       0.029200
     53 H23         31.0410    26.4180    13.9020 h1         1 Q7Q       0.039200
     54 H24         31.7850    27.7470    14.8260 h1         1 Q7Q       0.039200
     55 H25         30.0470    33.9620     9.1560 h1         1 Q7Q       0.042200
     56 H26         29.0180    34.8580     8.0250 h1         1 Q7Q       0.042200
     57 H27         29.8620    34.6250     5.4920 h4         1 Q7Q       0.214000
     58 H28         32.5880    28.7490     6.4760 h5         1 Q7Q       0.044100
     59 H29         29.4470    31.7710     9.3290 hn         1 Q7Q       0.543000
     60 O4          27.8640    32.3370    14.3860 o          1 Q7Q      -0.563100
@<TRIPOS>BOND
     1     1     9 1   
     2     1    10 1   
     3     2     3 ar  
     4     2     9 ar  
     5     2    22 1   
     6     3     4 ar  
     7     3    32 1   
     8     4     6 ar  
     9     4    33 1   
    10     5    11 1   
    11     5    12 1   
    12     5    14 1   
    13     6     7 ar  
    14     6    30 1   
    15     7     9 ar  
    16     7    34 1   
    17     8    16 1   
    18     8    23 1   
    19     8    35 1   
    20    10    11 1   
    21    10    36 1   
    22    10    37 1   
    23    11    60 2   
    24    12    38 1   
    25    12    39 1   
    26    12    40 1   
    27    13    25 1   
    28    13    26 1   
    29    13    41 1   
    30    14    15 1   
    31    14    42 1   
    32    14    43 1   
    33    15    16 1   
    34    15    44 1   
    35    15    45 1   
    36    16    46 1   
    37    16    47 1   
    38    17    26 ar  
    39    17    27 ar  
    40    18    19 1   
    41    18    48 1   
    42    18    49 1   
    43    18    50 1   
    44    19    20 1   
    45    20    21 1   
    46    20    51 1   
    47    20    52 1   
    48    21    22 1   
    49    21    53 1   
    50    21    54 1   
    51    23    24 1   
    52    23    55 1   
    53    23    56 1   
    54    24    25 2   
    55    24    31 1   
    56    25    57 1   
    57    26    31 ar  
    58    27    28 ar  
    59    27    58 1   
    60    28    29 ar  
    61    29    30 1   
    62    29    31 ar  
    63    30    59 1   
@<TRIPOS>SUBSTRUCTURE
     1 Q7Q         1 TEMP              0 ****  ****    0 ROOT
