@<TRIPOS>MOLECULE
Q7Q
   60    63     1     0     0
SMALL
bcc


@<TRIPOS>ATOM
      1 O3          27.9530    29.9340    13.5450 os         1 Q7Q      -0.265900
      2 C4          29.8960    28.7680    12.9660 ca         1 Q7Q       0.096100
      3 C5          30.9240    28.5330    12.0710 ca         1 Q7Q      -0.168000
      4 C6          31.0490    29.2500    10.8790 ca         1 Q7Q      -0.145000
      5 N1          26.6970    33.2470    12.7850 n          1 Q7Q      -0.489800
      6 C7          30.1300    30.2450    10.5780 ca         1 Q7Q       0.172600
      7 C8          29.0990    30.5000    11.4960 ca         1 Q7Q      -0.245000
      8 N2          28.0450    32.9480     8.7620 n7         1 Q7Q      -0.832200
      9 C9          28.9600    29.7730    12.6600 ca         1 Q7Q       0.136100
     10 C10         26.9240    30.8300    13.2160 c3         1 Q7Q       0.055400
     11 C11         27.3690    32.2790    13.4390 c          1 Q7Q       0.635100
     12 C12         26.9670    34.6420    13.0810 c3         1 Q7Q       0.080300
     13 N3          31.0310    32.7420     5.2590 na         1 Q7Q      -0.263100
     14 C13         25.6820    33.0010    11.7640 c3         1 Q7Q       0.109000
     15 C14         26.2330    32.6400    10.3830 c3         1 Q7Q      -0.111400
     16 C15         27.3350    33.5600     9.8770 c3         1 Q7Q       0.155800
     17 N4          32.2510    30.7780     5.9070 nb         1 Q7Q      -0.758000
     18 C1          29.9120    27.1160    18.0980 c3         1 Q7Q       0.122700
     19 O1          30.2950    27.5760    16.8270 os         1 Q7Q      -0.388600
     20 C2          30.2340    26.5730    15.8490 c3         1 Q7Q       0.136400
     21 C3          30.6470    27.1380    14.5160 c3         1 Q7Q       0.139400
     22 O2          29.6970    28.1090    14.1270 os         1 Q7Q      -0.291900
     23 C16         29.0000    33.8490     8.1290 c3         1 Q7Q       0.230000
     24 C17         29.8550    33.1460     7.1270 cc         1 Q7Q      -0.116400
     25 C18         30.1220    33.5760     5.8590 cd         1 Q7Q      -0.123100
     26 C19         31.3690    31.7590     6.1250 ca         1 Q7Q       0.473800
     27 C20         32.3940    29.9840     6.9460 ca         1 Q7Q       0.705900
     28 N5          31.7550    30.0320     8.1160 nb         1 Q7Q      -0.816000
     29 C21         30.8540    30.9920     8.3120 ca         1 Q7Q       0.766200
     30 N6          30.1190    31.0530     9.4440 nu         1 Q7Q      -0.741300
     31 C22         30.6450    31.9620     7.3060 ca         1 Q7Q      -0.373400
     32 H1          31.6610    27.7670    12.2710 ha         1 Q7Q       0.135000
     33 H2          31.8530    29.0180    10.2010 ha         1 Q7Q       0.168000
     34 H3          28.4070    31.2980    11.2700 ha         1 Q7Q       0.135000
     35 H4          27.3850    32.6190     8.0660 hn         1 Q7Q       0.364800
     36 H6          26.5400    30.6270    12.2140 h1         1 Q7Q       0.067700
     37 H7          26.1070    30.6280    13.9120 h1         1 Q7Q       0.067700
     38 H8          27.7390    34.7270    13.8380 h1         1 Q7Q       0.044367
     39 H9          27.3020    35.1740    12.1890 h1         1 Q7Q       0.044367
     40 H10         26.0620    35.1300    13.4460 h1         1 Q7Q       0.044367
     41 H11         31.3930    32.8470     4.3260 hn         1 Q7Q       0.313700
     42 H12         25.0860    33.9120    11.6960 h1         1 Q7Q       0.050200
     43 H13         24.9880    32.2250    12.0920 h1         1 Q7Q       0.050200
     44 H14         25.3940    32.6430     9.6830 hc         1 Q7Q       0.053700
     45 H15         26.6060    31.6120    10.3870 hc         1 Q7Q       0.053700
     46 H16         28.0750    33.7330    10.6640 h1         1 Q7Q       0.043200
     47 H17         26.9140    34.5410     9.6160 h1         1 Q7Q       0.043200
     48 H18         30.0010    27.9460    18.7970 h1         1 Q7Q       0.027367
     49 H19         28.8750    26.7600    18.1120 h1         1 Q7Q       0.027367
     50 H20         30.5510    26.2970    18.4500 h1         1 Q7Q       0.027367
     51 H21         29.2230    26.1450    15.7780 h1         1 Q7Q       0.029200
     52 H22         30.9130    25.7420    16.0860 h1         1 Q7Q       0.029200
     53 H23         30.6940    26.3190    13.7900 h1         1 Q7Q       0.039200
     54 H24         31.6490    27.5790    14.5840 h1         1 Q7Q       0.039200
     55 H25         29.6290    34.2620     8.9250 h1         1 Q7Q       0.042200
     56 H26         28.5110    34.7100     7.6530 h1         1 Q7Q       0.042200
     57 H27         29.7340    34.4340     5.3330 h4         1 Q7Q       0.164000
     58 H28         33.1140    29.1780     6.8430 h5         1 Q7Q       0.044100
     59 H29         29.3110    31.6890     9.3620 hn         1 Q7Q       0.487800
     60 O4          28.2690    32.4990    14.2340 o          1 Q7Q      -0.563100
@<TRIPOS>BOND
     1     1     9 1   
     2     1    10 1   
     3     2     3 ar  
     4     2     9 ar  
     5     2    22 1   
     6     3     4 ar  
     7     3    32 1   
     8     4     6 ar  
     9     4    33 1   
    10     5    11 1   
    11     5    12 1   
    12     5    14 1   
    13     6     7 ar  
    14     6    30 1   
    15     7     9 ar  
    16     7    34 1   
    17     8    16 1   
    18     8    23 1   
    19     8    35 1   
    20    10    11 1   
    21    10    36 1   
    22    10    37 1   
    23    11    60 2   
    24    12    38 1   
    25    12    39 1   
    26    12    40 1   
    27    13    25 1   
    28    13    26 1   
    29    13    41 1   
    30    14    15 1   
    31    14    42 1   
    32    14    43 1   
    33    15    16 1   
    34    15    44 1   
    35    15    45 1   
    36    16    46 1   
    37    16    47 1   
    38    17    26 ar  
    39    17    27 ar  
    40    18    19 1   
    41    18    48 1   
    42    18    49 1   
    43    18    50 1   
    44    19    20 1   
    45    20    21 1   
    46    20    51 1   
    47    20    52 1   
    48    21    22 1   
    49    21    53 1   
    50    21    54 1   
    51    23    24 1   
    52    23    55 1   
    53    23    56 1   
    54    24    25 2   
    55    24    31 1   
    56    25    57 1   
    57    26    31 ar  
    58    27    28 ar  
    59    27    58 1   
    60    28    29 ar  
    61    29    30 1   
    62    29    31 ar  
    63    30    59 1   
@<TRIPOS>SUBSTRUCTURE
     1 Q7Q         1 TEMP              0 ****  ****    0 ROOT
