@<TRIPOS>MOLECULE
Q7R
   44    46     1     0     0
SMALL
No Charge or Current Charge


@<TRIPOS>ATOM
      1 N1           8.8750    -2.7320    22.7090 n3         1 Q7R      -0.714600
      2 C4           9.2080    -2.1710    21.3700 c6         1 Q7R       0.141800
      3 C5           7.9460    -1.7700    20.5580 c6         1 Q7R       0.100500
      4 C6          10.0840    -3.0160    23.5370 c3         1 Q7R       0.275100
      5 C7           9.7580    -3.6130    24.9120 ca         1 Q7R      -0.084800
      6 C8           8.7560    -3.0500    25.7320 ca         1 Q7R      -0.096250
      7 C10          9.1850    -4.7250    27.4450 ca         1 Q7R      -0.106500
      8 C13         10.9990    -1.7970    23.7220 ca         1 Q7R      -0.084800
      9 C15         13.2380    -0.8160    23.6920 ca         1 Q7R      -0.113250
     10 C17         11.3220     0.5640    24.2710 ca         1 Q7R      -0.113250
     11 O            4.7280    -3.2700    19.8110 o          1 Q7R      -0.615100
     12 C            5.9570    -1.8400    18.3410 c3         1 Q7R      -0.172100
     13 N            6.8700    -2.8090    20.4990 n          1 Q7R      -0.417800
     14 C3           8.0110    -3.9290    22.5160 c6         1 Q7R       0.141800
     15 C2           6.6970    -3.5960    21.7590 c6         1 Q7R       0.100500
     16 C18         10.4730    -0.5430    24.1010 ca         1 Q7R      -0.096250
     17 C16         12.7050     0.4280    24.0660 ca         1 Q7R      -0.106500
     18 C14         12.3890    -1.9240    23.5210 ca         1 Q7R      -0.096250
     19 C12         10.4710    -4.7370    25.3770 ca         1 Q7R      -0.096250
     20 C11         10.1860    -5.2910    26.6380 ca         1 Q7R      -0.113250
     21 C9           8.4710    -3.6040    26.9920 ca         1 Q7R      -0.113250
     22 H2           9.7790    -2.9080    20.7860 h1         1 Q7R       0.046700
     23 H3           9.8450    -1.2790    21.4600 h1         1 Q7R       0.046700
     24 H4           8.2770    -1.5070    19.5440 h1         1 Q7R       0.059450
     25 H5           7.5210    -0.8600    21.0050 h1         1 Q7R       0.059450
     26 H6          10.6720    -3.7710    22.9960 h1         1 Q7R       0.032700
     27 H7           8.1940    -2.1850    25.3880 ha         1 Q7R       0.116500
     28 H8           8.9650    -5.1540    28.4210 ha         1 Q7R       0.113000
     29 H9          14.3090    -0.9230    23.5340 ha         1 Q7R       0.113000
     30 H10         10.9070     1.5270    24.5600 ha         1 Q7R       0.113000
     31 H11          5.0860    -1.8930    17.6780 hc         1 Q7R       0.060033
     32 H12          6.1750    -0.8030    18.6200 hc         1 Q7R       0.060033
     33 H13          6.8730    -2.1500    17.8260 hc         1 Q7R       0.060033
     34 H14          7.7360    -4.3800    23.4800 h1         1 Q7R       0.046700
     35 H15          8.5560    -4.6990    21.9500 h1         1 Q7R       0.046700
     36 H16          6.0440    -3.0250    22.4330 h1         1 Q7R       0.059450
     37 H17          6.1820    -4.5400    21.5340 h1         1 Q7R       0.059450
     38 H18          9.4030    -0.4270    24.2560 ha         1 Q7R       0.116500
     39 H19         13.3620     1.2850    24.1980 ha         1 Q7R       0.113000
     40 H20         12.8140    -2.8830    23.2320 ha         1 Q7R       0.116500
     41 H21         11.2490    -5.1830    24.7620 ha         1 Q7R       0.116500
     42 H22         10.7410    -6.1580    26.9880 ha         1 Q7R       0.113000
     43 H23          7.6950    -3.1640    27.6160 ha         1 Q7R       0.113000
     44 C1           5.7800    -2.6780    19.6090 c          1 Q7R       0.602100
@<TRIPOS>BOND
     1     1     2 1   
     2     1     4 1   
     3     1    14 1   
     4     2     3 1   
     5     2    22 1   
     6     2    23 1   
     7     3    13 1   
     8     3    24 1   
     9     3    25 1   
    10     4     5 1   
    11     4     8 1   
    12     4    26 1   
    13     5     6 ar  
    14     5    19 ar  
    15     6    21 ar  
    16     6    27 1   
    17     7    20 ar  
    18     7    21 ar  
    19     7    28 1   
    20     8    16 ar  
    21     8    18 ar  
    22     9    17 ar  
    23     9    18 ar  
    24     9    29 1   
    25    10    16 ar  
    26    10    17 ar  
    27    10    30 1   
    28    11    44 2   
    29    12    31 1   
    30    12    32 1   
    31    12    33 1   
    32    12    44 1   
    33    13    15 1   
    34    13    44 1   
    35    14    15 1   
    36    14    34 1   
    37    14    35 1   
    38    15    36 1   
    39    15    37 1   
    40    16    38 1   
    41    17    39 1   
    42    18    40 1   
    43    19    20 ar  
    44    19    41 1   
    45    20    42 1   
    46    21    43 1   
@<TRIPOS>SUBSTRUCTURE
     1 Q7R         1 TEMP              0 ****  ****    0 ROOT
