@<TRIPOS>MOLECULE
Q7R
   44    46     1     0     0
SMALL
abcg2


@<TRIPOS>ATOM
      1 N1           8.7570    -2.6040    22.7600 n3         1 Q7R      -0.714600
      2 C4           9.0300    -2.0170    21.4480 c6         1 Q7R       0.141800
      3 C5           7.7450    -1.5230    20.8000 c6         1 Q7R       0.100500
      4 C6           9.9950    -2.9880    23.4510 c3         1 Q7R       0.275100
      5 C7           9.7170    -3.6190    24.8060 ca         1 Q7R      -0.084800
      6 C8           8.8250    -3.0410    25.7100 ca         1 Q7R      -0.096250
      7 C10          9.3120    -4.7610    27.3320 ca         1 Q7R      -0.106500
      8 C13         10.9300    -1.8040    23.6410 ca         1 Q7R      -0.084800
      9 C15         13.1840    -0.9190    23.6690 ca         1 Q7R      -0.113250
     10 C17         11.3360     0.4940    24.2800 ca         1 Q7R      -0.113250
     11 O            5.2360    -3.8410    19.5870 o          1 Q7R      -0.615100
     12 C            6.3860    -2.1760    18.3150 c3         1 Q7R      -0.172100
     13 N            6.7720    -2.6040    20.7010 n          1 Q7R      -0.417800
     14 C3           7.8460    -3.7370    22.5910 c6         1 Q7R       0.141800
     15 C2           6.5340    -3.2850    21.9680 c6         1 Q7R       0.100500
     16 C18         10.4570    -0.5600    24.0620 ca         1 Q7R      -0.096250
     17 C16         12.7050     0.3180    24.0880 ca         1 Q7R      -0.106500
     18 C14         12.2990    -1.9700    23.4450 ca         1 Q7R      -0.096250
     19 C12         10.4010    -4.7720    25.1820 ca         1 Q7R      -0.096250
     20 C11         10.2040    -5.3410    26.4380 ca         1 Q7R      -0.113250
     21 C9           8.6200    -3.6090    26.9620 ca         1 Q7R      -0.113250
     22 H2           9.5140    -2.7520    20.7820 h1         1 Q7R       0.046700
     23 H3           9.7080    -1.1740    21.5600 h1         1 Q7R       0.046700
     24 H4           7.9690    -1.1230    19.8170 h1         1 Q7R       0.059450
     25 H5           7.3210    -0.7180    21.4090 h1         1 Q7R       0.059450
     26 H6          10.5380    -3.7370    22.8530 h1         1 Q7R       0.032700
     27 H7           8.2800    -2.1510    25.4250 ha         1 Q7R       0.116500
     28 H8           9.1510    -5.2020    28.3080 ha         1 Q7R       0.113000
     29 H9          14.2450    -1.0660    23.5100 ha         1 Q7R       0.113000
     30 H10         10.9530     1.4550    24.5990 ha         1 Q7R       0.113000
     31 H11          5.7530    -2.5730    17.5250 hc         1 Q7R       0.060033
     32 H12          6.1820    -1.1110    18.4340 hc         1 Q7R       0.060033
     33 H13          7.4310    -2.2860    18.0230 hc         1 Q7R       0.060033
     34 H14          7.6360    -4.1840    23.5610 h1         1 Q7R       0.046700
     35 H15          8.3040    -4.5150    21.9560 h1         1 Q7R       0.046700
     36 H16          6.0260    -2.5990    22.6540 h1         1 Q7R       0.059450
     37 H17          5.8870    -4.1380    21.7870 h1         1 Q7R       0.059450
     38 H18          9.3950    -0.4140    24.2030 ha         1 Q7R       0.116500
     39 H19         13.3900     1.1390    24.2580 ha         1 Q7R       0.113000
     40 H20         12.6750    -2.9300    23.1120 ha         1 Q7R       0.116500
     41 H21         11.0930    -5.2300    24.4850 ha         1 Q7R       0.116500
     42 H22         10.7440    -6.2380    26.7130 ha         1 Q7R       0.113000
     43 H23          7.9190    -3.1530    27.6500 ha         1 Q7R       0.113000
     44 C1           6.0850    -2.9410    19.5860 c          1 Q7R       0.602100
@<TRIPOS>BOND
     1     1     2 1   
     2     1     4 1   
     3     1    14 1   
     4     2     3 1   
     5     2    22 1   
     6     2    23 1   
     7     3    13 1   
     8     3    24 1   
     9     3    25 1   
    10     4     5 1   
    11     4     8 1   
    12     4    26 1   
    13     5     6 ar  
    14     5    19 ar  
    15     6    21 ar  
    16     6    27 1   
    17     7    20 ar  
    18     7    21 ar  
    19     7    28 1   
    20     8    16 ar  
    21     8    18 ar  
    22     9    17 ar  
    23     9    18 ar  
    24     9    29 1   
    25    10    16 ar  
    26    10    17 ar  
    27    10    30 1   
    28    11    44 2   
    29    12    31 1   
    30    12    32 1   
    31    12    33 1   
    32    12    44 1   
    33    13    15 1   
    34    13    44 1   
    35    14    15 1   
    36    14    34 1   
    37    14    35 1   
    38    15    36 1   
    39    15    37 1   
    40    16    38 1   
    41    17    39 1   
    42    18    40 1   
    43    19    20 ar  
    44    19    41 1   
    45    20    42 1   
    46    21    43 1   
@<TRIPOS>SUBSTRUCTURE
     1 Q7R         1 TEMP              0 ****  ****    0 ROOT
