@<TRIPOS>MOLECULE
Q7U
   34    36     1     0     0
SMALL
No Charge or Current Charge


@<TRIPOS>ATOM
      1 Cl           3.8070    -2.1820    -0.2870 cl         1 Q7U      -0.210000
      2 CAK          4.1320    -0.4470    -0.2670 ca         1 Q7U       0.079000
      3 CAJ          5.4680    -0.0120    -0.3070 ca         1 Q7U      -0.084000
      4 CAB          5.7620     1.3600    -0.2920 ca         1 Q7U      -0.115000
      5 CAC          4.7180     2.2960    -0.2370 ca         1 Q7U      -0.088000
      6 CAD          3.3800     1.8650    -0.1970 ca         1 Q7U      -0.100000
      7 CAL          3.0700     0.4840    -0.2120 ca         1 Q7U      -0.011000
      8 NAM          1.7370    -0.0200    -0.1730 ns         1 Q7U      -0.175000
      9 CAN          0.4990     0.6040    -0.1290 c          1 Q7U       0.674100
     10 OAE          0.3380     1.8150    -0.1190 o          1 Q7U      -0.542100
     11 NAO         -0.5270    -0.3110    -0.1010 ns         1 Q7U      -0.436400
     12 CAP         -1.8820    -0.0820    -0.0530 cc         1 Q7U       0.507400
     13 NAQ         -2.4710     1.1270    -0.0120 nd         1 Q7U      -0.567100
     14 CAR         -3.8330     0.8390     0.0390 ca         1 Q7U       0.089400
     15 CAS         -4.9020     1.7460     0.0990 ca         1 Q7U      -0.053000
     16 CAT         -6.2170     1.2310     0.1490 ca         1 Q7U      -0.130000
     17 CAI         -6.4400    -0.1660     0.1400 ca         1 Q7U      -0.100000
     18 CAH         -5.3510    -1.0600     0.0790 ca         1 Q7U      -0.114000
     19 CAG         -4.0620    -0.5080     0.0290 ca         1 Q7U      -0.076200
     20 NAF         -2.8370    -1.1030    -0.0340 na         1 Q7U      -0.217600
     21 CAA         -2.6530    -2.5650    -0.0630 c3         1 Q7U       0.063900
     22 HAJ          6.2740    -0.7400    -0.3490 ha         1 Q7U       0.130000
     23 HAB          6.7960     1.6970    -0.3230 ha         1 Q7U       0.121000
     24 HAC          4.9450     3.3610    -0.2250 ha         1 Q7U       0.122000
     25 HAD          2.6030     2.6220    -0.1540 ha         1 Q7U       0.139000
     26 HAM          1.6960    -1.0300    -0.1790 hn         1 Q7U       0.155000
     27 HAO         -0.2360    -1.2750    -0.1150 hn         1 Q7U       0.320500
     28 HAS         -4.7190     2.8170     0.1080 ha         1 Q7U       0.132000
     29 HAT         -7.0620     1.9140     0.1960 ha         1 Q7U       0.114000
     30 HAI         -7.4570    -0.5530     0.1790 ha         1 Q7U       0.111000
     31 HAH         -5.5110    -2.1360     0.0730 ha         1 Q7U       0.113000
     32 HAA1        -2.8200    -2.9760     0.9400 h1         1 Q7U       0.050033
     33 HAA2        -3.3700    -3.0150    -0.7610 h1         1 Q7U       0.050033
     34 HAA3        -1.6380    -2.8170    -0.3930 h1         1 Q7U       0.050033
@<TRIPOS>BOND
     1     1     2 1   
     2     2     3 ar  
     3     2     7 ar  
     4     3     4 ar  
     5     3    22 1   
     6     4     5 ar  
     7     4    23 1   
     8     5     6 ar  
     9     5    24 1   
    10     6     7 ar  
    11     6    25 1   
    12     7     8 1   
    13     8     9 1   
    14     8    26 1   
    15     9    10 2   
    16     9    11 1   
    17    11    12 1   
    18    11    27 1   
    19    12    13 2   
    20    12    20 1   
    21    13    14 1   
    22    14    15 ar  
    23    14    19 ar  
    24    15    16 ar  
    25    15    28 1   
    26    16    17 ar  
    27    16    29 1   
    28    17    18 ar  
    29    17    30 1   
    30    18    19 ar  
    31    18    31 1   
    32    19    20 1   
    33    20    21 1   
    34    21    32 1   
    35    21    33 1   
    36    21    34 1   
@<TRIPOS>SUBSTRUCTURE
     1 Q7U         1 TEMP              0 ****  ****    0 ROOT
