@<TRIPOS>MOLECULE
Q7U
   34    36     1     0     0
SMALL
abcg2


@<TRIPOS>ATOM
      1 CL           3.7480    -1.6800     1.4040 cl         1 Q7U      -0.210000
      2 CAK          4.0250    -0.2280     0.4990 ca         1 Q7U       0.079000
      3 CAJ          5.2830     0.3520     0.5320 ca         1 Q7U      -0.084000
      4 CAB          5.5160     1.5230    -0.1720 ca         1 Q7U      -0.115000
      5 CAC          4.4920     2.0920    -0.9170 ca         1 Q7U      -0.088000
      6 CAD          3.2420     1.4960    -0.9640 ca         1 Q7U      -0.100000
      7 CAL          2.9840     0.3300    -0.2460 ca         1 Q7U      -0.011000
      8 NAM          1.7380    -0.3030    -0.2930 ns         1 Q7U      -0.175000
      9 CAN          0.5480     0.3540    -0.1380 c          1 Q7U       0.674100
     10 OAE          0.4500     1.5490     0.0260 o          1 Q7U      -0.542100
     11 NAO         -0.5270    -0.5090    -0.2030 ns         1 Q7U      -0.436400
     12 CAP         -1.8430    -0.1610    -0.0250 cc         1 Q7U       0.507400
     13 NAQ         -2.3070     0.9830     0.3890 nd         1 Q7U      -0.567100
     14 CAR         -3.6720     0.8170     0.3980 ca         1 Q7U       0.089400
     15 CAS         -4.6760     1.7150     0.7490 ca         1 Q7U      -0.053000
     16 CAT         -5.9920     1.2860     0.6690 ca         1 Q7U      -0.130000
     17 CAI         -6.3100    -0.0110     0.2480 ca         1 Q7U      -0.100000
     18 CAH         -5.3220    -0.9190    -0.1050 ca         1 Q7U      -0.114000
     19 CAG         -4.0090    -0.4790    -0.0220 ca         1 Q7U      -0.076200
     20 NAF         -2.8060    -1.0910    -0.2910 na         1 Q7U      -0.217600
     21 CAA         -2.6000    -2.4330    -0.7830 c3         1 Q7U       0.063900
     22 HAJ          6.0720    -0.1050     1.1140 ha         1 Q7U       0.130000
     23 HAB          6.4950     1.9810    -0.1420 ha         1 Q7U       0.121000
     24 HAC          4.6670     2.9990    -1.4790 ha         1 Q7U       0.122000
     25 HAD          2.4650     1.9310    -1.5740 ha         1 Q7U       0.139000
     26 HAM          1.7430    -1.3110    -0.2490 hn         1 Q7U       0.155000
     27 HAO         -0.3400    -1.4780    -0.4150 hn         1 Q7U       0.320500
     28 HAS         -4.4310     2.7170     1.0760 ha         1 Q7U       0.132000
     29 HAT         -6.7910     1.9650     0.9360 ha         1 Q7U       0.114000
     30 HAI         -7.3470    -0.3130     0.1950 ha         1 Q7U       0.111000
     31 HAH         -5.5790    -1.9190    -0.4310 ha         1 Q7U       0.113000
     32 HAA1        -2.0070    -3.0240    -0.0850 h1         1 Q7U       0.050033
     33 HAA2        -3.5620    -2.9230    -0.8980 h1         1 Q7U       0.050033
     34 HAA3        -2.1090    -2.4230    -1.7560 h1         1 Q7U       0.050033
@<TRIPOS>BOND
     1     1     2 1   
     2     2     3 ar  
     3     2     7 ar  
     4     3     4 ar  
     5     3    22 1   
     6     4     5 ar  
     7     4    23 1   
     8     5     6 ar  
     9     5    24 1   
    10     6     7 ar  
    11     6    25 1   
    12     7     8 1   
    13     8     9 1   
    14     8    26 1   
    15     9    10 2   
    16     9    11 1   
    17    11    12 1   
    18    11    27 1   
    19    12    13 2   
    20    12    20 1   
    21    13    14 1   
    22    14    15 ar  
    23    14    19 ar  
    24    15    16 ar  
    25    15    28 1   
    26    16    17 ar  
    27    16    29 1   
    28    17    18 ar  
    29    17    30 1   
    30    18    19 ar  
    31    18    31 1   
    32    19    20 1   
    33    20    21 1   
    34    21    32 1   
    35    21    33 1   
    36    21    34 1   
@<TRIPOS>SUBSTRUCTURE
     1 Q7U         1 TEMP              0 ****  ****    0 ROOT
