@<TRIPOS>MOLECULE
Q7X
   27    28     1     0     0
SMALL
No Charge or Current Charge


@<TRIPOS>ATOM
      1 C4         -35.7580   -30.6920    40.3830 c3         1 Q7X      -0.174100
      2 C5         -35.3270   -33.4840    43.0680 ca         1 Q7X      -0.090000
      3 C6         -35.5810   -34.6880    42.3690 ca         1 Q7X      -0.086000
      4 C7         -35.6270   -35.9200    43.0440 ca         1 Q7X      -0.106000
      5 C8         -35.4450   -35.9690    44.4350 ca         1 Q7X      -0.130000
      6 C10        -35.1880   -33.5400    44.4820 ca         1 Q7X       0.068100
      7 N          -35.3660   -32.1930    42.4030 n          1 Q7X      -0.230400
      8 C          -34.4810   -30.0510    45.5000 c3         1 Q7X      -0.093100
      9 O          -37.0430   -32.6410    40.8600 o          1 Q7X      -0.575100
     10 C1         -35.1900   -31.1060    44.6180 c6         1 Q7X       0.149300
     11 C2         -34.7040   -31.0940    43.1540 c6         1 Q7X       0.066000
     12 C3         -36.1330   -31.9100    41.2350 c          1 Q7X       0.606100
     13 C9         -35.2260   -34.7830    45.1490 ca         1 Q7X       0.148000
     14 F          -35.0610   -34.8430    46.4920 f          1 Q7X      -0.173000
     15 O1         -34.9570   -32.3930    45.2220 os         1 Q7X      -0.332100
     16 H7         -36.1850   -30.7470    39.3750 hc         1 Q7X       0.065033
     17 H8         -36.1200   -29.7890    40.8850 hc         1 Q7X       0.065033
     18 H6         -34.6700   -30.5640    40.3640 hc         1 Q7X       0.065033
     19 H10        -35.8040   -36.8380    42.4870 ha         1 Q7X       0.123000
     20 H11        -35.4780   -36.9210    44.9590 ha         1 Q7X       0.135000
     21 H          -34.8520   -30.0860    46.5310 hc         1 Q7X       0.053367
     22 H1         -33.3970   -30.2160    45.5250 hc         1 Q7X       0.053367
     23 H2         -34.6570   -29.0380    45.1190 hc         1 Q7X       0.053367
     24 H3         -36.2720   -30.9110    44.6330 h1         1 Q7X       0.059700
     25 H5         -34.9210   -30.1090    42.7230 h1         1 Q7X       0.069200
     26 H4         -33.6150   -31.2410    43.1220 h1         1 Q7X       0.069200
     27 H9         -35.7110   -34.6880    41.2890 ha         1 Q7X       0.139000
@<TRIPOS>BOND
     1     1    12 1   
     2     1    16 1   
     3     1    17 1   
     4     1    18 1   
     5     2     3 ar  
     6     2     6 ar  
     7     2     7 1   
     8     3     4 ar  
     9     3    27 1   
    10     4     5 ar  
    11     4    19 1   
    12     5    13 ar  
    13     5    20 1   
    14     6    13 ar  
    15     6    15 1   
    16     7    11 1   
    17     7    12 1   
    18     8    10 1   
    19     8    21 1   
    20     8    22 1   
    21     8    23 1   
    22     9    12 2   
    23    10    11 1   
    24    10    15 1   
    25    10    24 1   
    26    11    25 1   
    27    11    26 1   
    28    13    14 1   
@<TRIPOS>SUBSTRUCTURE
     1 Q7X         1 TEMP              0 ****  ****    0 ROOT
