@<TRIPOS>MOLECULE
Q7X
   27    28     1     0     0
SMALL
abcg2


@<TRIPOS>ATOM
      1 C4         -35.8890   -30.5780    40.6440 c3         1 Q7X      -0.174100
      2 C5         -35.4000   -33.4930    43.0340 ca         1 Q7X      -0.090000
      3 C6         -35.4900   -34.7150    42.3630 ca         1 Q7X      -0.086000
      4 C7         -35.5240   -35.9080    43.0670 ca         1 Q7X      -0.106000
      5 C8         -35.4520   -35.9090    44.4580 ca         1 Q7X      -0.130000
      6 C10        -35.3100   -33.4790    44.4350 ca         1 Q7X       0.068100
      7 N          -35.3100   -32.2460    42.3630 n          1 Q7X      -0.230400
      8 C          -34.4850   -30.0880    45.3740 c3         1 Q7X      -0.093100
      9 O          -36.8420   -32.7610    40.7610 o          1 Q7X      -0.575100
     10 C1         -35.2000   -31.0880    44.4950 c6         1 Q7X       0.149300
     11 C2         -34.5680   -31.2410    43.1230 c6         1 Q7X       0.066000
     12 C3         -36.0630   -31.9500    41.2520 c          1 Q7X       0.606100
     13 C9         -35.3400   -34.7010    45.1080 ca         1 Q7X       0.148000
     14 F          -35.2560   -34.6730    46.4620 f          1 Q7X      -0.173000
     15 O1         -35.1700   -32.3600    45.1860 os         1 Q7X      -0.332100
     16 H7         -36.4390   -30.5600    39.7060 hc         1 Q7X       0.065033
     17 H8         -36.2910   -29.8050    41.3030 hc         1 Q7X       0.065033
     18 H6         -34.8400   -30.3470    40.4540 hc         1 Q7X       0.065033
     19 H10        -35.5980   -36.8450    42.5320 ha         1 Q7X       0.123000
     20 H11        -35.4760   -36.8240    45.0340 ha         1 Q7X       0.135000
     21 H          -34.9370   -30.0670    46.3660 hc         1 Q7X       0.053367
     22 H1         -33.4300   -30.3490    45.4740 hc         1 Q7X       0.053367
     23 H2         -34.5620   -29.0910    44.9380 hc         1 Q7X       0.053367
     24 H3         -36.2510   -30.8100    44.3690 h1         1 Q7X       0.059700
     25 H5         -34.5840   -30.2870    42.6130 h1         1 Q7X       0.069200
     26 H4         -33.5280   -31.5610    43.2260 h1         1 Q7X       0.069200
     27 H9         -35.5340   -34.7180    41.2860 ha         1 Q7X       0.139000
@<TRIPOS>BOND
     1     1    12 1   
     2     1    16 1   
     3     1    17 1   
     4     1    18 1   
     5     2     3 ar  
     6     2     6 ar  
     7     2     7 1   
     8     3     4 ar  
     9     3    27 1   
    10     4     5 ar  
    11     4    19 1   
    12     5    13 ar  
    13     5    20 1   
    14     6    13 ar  
    15     6    15 1   
    16     7    11 1   
    17     7    12 1   
    18     8    10 1   
    19     8    21 1   
    20     8    22 1   
    21     8    23 1   
    22     9    12 2   
    23    10    11 1   
    24    10    15 1   
    25    10    24 1   
    26    11    25 1   
    27    11    26 1   
    28    13    14 1   
@<TRIPOS>SUBSTRUCTURE
     1 Q7X         1 TEMP              0 ****  ****    0 ROOT
