@<TRIPOS>MOLECULE
Q7Y
   36    35     1     0     0
SMALL
abcg2


@<TRIPOS>ATOM
      1 C10         -2.7980     0.7220     0.0320 c3         1 Q7Y      -0.175400
      2 C11         -4.1090    -0.0140     0.0890 c          1 Q7Y       0.579100
      3 C13         -5.3400     0.8360    -0.1060 c3         1 Q7Y      -0.053400
      4 C02          7.1910     0.3200     0.0080 c3         1 Q7Y       0.149800
      5 C03          5.8760    -0.4440     0.0160 c3         1 Q7Y      -0.082400
      6 C04          4.6700     0.4820     0.0180 c3         1 Q7Y       0.160800
      7 C06          2.2540     0.5890     0.0330 c3         1 Q7Y       0.160800
      8 C07          0.9700    -0.2250     0.0520 c3         1 Q7Y      -0.079400
      9 C08         -0.2780     0.6480     0.0330 c3         1 Q7Y      -0.075400
     10 C09         -1.5650    -0.1670     0.0680 c3         1 Q7Y      -0.066400
     11 N01          8.3240    -0.5970    -0.0040 n8         1 Q7Y      -0.992200
     12 N05          3.4270    -0.2640     0.0530 n7         1 Q7Y      -0.858400
     13 O12         -4.1960    -1.2040     0.2810 o          1 Q7Y      -0.486100
     14 S14         -6.8220    -0.1950     0.0660 sh         1 Q7Y      -0.372800
     15 H1          -2.7970     1.3520    -0.8650 hc         1 Q7Y       0.060200
     16 H2          -2.7880     1.4280     0.8710 hc         1 Q7Y       0.060200
     17 H3          -5.3380     1.6480     0.6240 h1         1 Q7Y       0.076200
     18 H4          -5.3000     1.2980    -1.0950 h1         1 Q7Y       0.076200
     19 H5           7.1920     1.0240    -0.8360 h1         1 Q7Y       0.025700
     20 H6           7.2540     0.9290     0.9140 h1         1 Q7Y       0.025700
     21 H7           5.8310    -1.0940    -0.8660 hc         1 Q7Y       0.053200
     22 H8           5.8370    -1.0980     0.8910 hc         1 Q7Y       0.053200
     23 H9           4.7090     1.1230     0.9050 h1         1 Q7Y       0.026200
     24 H10          4.7290     1.1610    -0.8490 h1         1 Q7Y       0.026200
     25 H11          2.2410     1.2670    -0.8380 h1         1 Q7Y       0.026200
     26 H12          2.2850     1.2350     0.9170 h1         1 Q7Y       0.026200
     27 H13          0.9530    -0.8990    -0.8120 hc         1 Q7Y       0.048700
     28 H14          0.9630    -0.8620     0.9420 hc         1 Q7Y       0.048700
     29 H15         -0.2570     1.3330     0.8870 hc         1 Q7Y       0.035700
     30 H16         -0.2690     1.2790    -0.8630 hc         1 Q7Y       0.035700
     31 H17         -1.5780    -0.7850     0.9700 hc         1 Q7Y       0.055700
     32 H18         -1.5820    -0.8570    -0.7800 hc         1 Q7Y       0.055700
     33 H19          8.3400    -1.0890    -0.8890 hn         1 Q7Y       0.391000
     34 H20          9.1850    -0.0660     0.0240 hn         1 Q7Y       0.391000
     35 H22          3.3940    -0.8770    -0.7550 hn         1 Q7Y       0.405000
     36 H24         -7.6990     0.7890    -0.1630 hs         1 Q7Y       0.189800
@<TRIPOS>BOND
     1     1     2 1   
     2     1    10 1   
     3     1    15 1   
     4     1    16 1   
     5     2     3 1   
     6     2    13 2   
     7     3    14 1   
     8     3    17 1   
     9     3    18 1   
    10     4     5 1   
    11     4    11 1   
    12     4    19 1   
    13     4    20 1   
    14     5     6 1   
    15     5    21 1   
    16     5    22 1   
    17     6    12 1   
    18     6    23 1   
    19     6    24 1   
    20     7     8 1   
    21     7    12 1   
    22     7    25 1   
    23     7    26 1   
    24     8     9 1   
    25     8    27 1   
    26     8    28 1   
    27     9    10 1   
    28     9    29 1   
    29     9    30 1   
    30    10    31 1   
    31    10    32 1   
    32    11    33 1   
    33    11    34 1   
    34    12    35 1   
    35    14    36 1   
@<TRIPOS>SUBSTRUCTURE
     1 Q7Y         1 TEMP              0 ****  ****    0 ROOT
