@<TRIPOS>MOLECULE
Q7Y
   36    35     1     0     0
SMALL
No Charge or Current Charge


@<TRIPOS>ATOM
      1 C10         -2.9110     1.0880     0.7460 c3         1 Q7Y      -0.175400
      2 C11         -4.2280     0.3010     0.6750 c          1 Q7Y       0.579100
      3 C13         -4.9820     0.3720    -0.6700 c3         1 Q7Y      -0.053400
      4 C02          7.1750     0.0560    -0.2060 c3         1 Q7Y       0.149800
      5 C03          5.7560    -0.5440    -0.2450 c3         1 Q7Y      -0.082400
      6 C04          4.6660     0.5080     0.0390 c3         1 Q7Y       0.160800
      7 C06          2.2090     0.8020     0.2760 c3         1 Q7Y       0.160800
      8 C07          0.8710     0.0370     0.2200 c3         1 Q7Y      -0.079400
      9 C08         -0.3490     0.9400     0.5080 c3         1 Q7Y      -0.075400
     10 C09         -1.6920     0.1790     0.4550 c3         1 Q7Y      -0.066400
     11 N01          8.2060    -0.9630    -0.4760 n8         1 Q7Y      -0.992200
     12 N05          3.3300    -0.1120    -0.0020 n7         1 Q7Y      -0.858400
     13 O12         -4.6350    -0.3430     1.6350 o          1 Q7Y      -0.486100
     14 S14         -6.3370    -0.9040    -0.8430 sh         1 Q7Y      -0.372800
     15 H1          -2.9220     1.8790    -0.0130 hc         1 Q7Y       0.060200
     16 H2          -2.8020     1.5200     1.7480 hc         1 Q7Y       0.060200
     17 H3          -5.4110     1.3770    -0.7670 h1         1 Q7Y       0.076200
     18 H4          -4.2530     0.2280    -1.4770 h1         1 Q7Y       0.076200
     19 H5           7.2620     0.8520    -0.9590 h1         1 Q7Y       0.025700
     20 H6           7.3640     0.4920     0.7840 h1         1 Q7Y       0.025700
     21 H7           5.5780    -0.9920    -1.2310 hc         1 Q7Y       0.053200
     22 H8           5.6830    -1.3480     0.4970 hc         1 Q7Y       0.053200
     23 H9           4.8490     0.9530     1.0270 h1         1 Q7Y       0.026200
     24 H10          4.7380     1.3100    -0.7090 h1         1 Q7Y       0.026200
     25 H11          2.1880     1.6160    -0.4620 h1         1 Q7Y       0.026200
     26 H12          2.3220     1.2530     1.2710 h1         1 Q7Y       0.026200
     27 H13          0.7550    -0.4190    -0.7710 hc         1 Q7Y       0.048700
     28 H14          0.8940    -0.7810     0.9510 hc         1 Q7Y       0.048700
     29 H15         -0.2320     1.3970     1.4990 hc         1 Q7Y       0.035700
     30 H16         -0.3700     1.7600    -0.2220 hc         1 Q7Y       0.035700
     31 H17         -1.6700    -0.6410     1.1850 hc         1 Q7Y       0.055700
     32 H18         -1.8080    -0.2790    -0.5360 hc         1 Q7Y       0.055700
     33 H19          8.0880    -1.3130    -1.4350 hn         1 Q7Y       0.391000
     34 H20          9.1280    -0.5100    -0.4980 hn         1 Q7Y       0.391000
     35 H22          3.1920    -0.5110    -0.9380 hn         1 Q7Y       0.405000
     36 H24         -6.7400    -0.5380    -2.0840 hs         1 Q7Y       0.189800
@<TRIPOS>BOND
     1     1     2 1   
     2     1    10 1   
     3     1    15 1   
     4     1    16 1   
     5     2     3 1   
     6     2    13 2   
     7     3    14 1   
     8     3    17 1   
     9     3    18 1   
    10     4     5 1   
    11     4    11 1   
    12     4    19 1   
    13     4    20 1   
    14     5     6 1   
    15     5    21 1   
    16     5    22 1   
    17     6    12 1   
    18     6    23 1   
    19     6    24 1   
    20     7     8 1   
    21     7    12 1   
    22     7    25 1   
    23     7    26 1   
    24     8     9 1   
    25     8    27 1   
    26     8    28 1   
    27     9    10 1   
    28     9    29 1   
    29     9    30 1   
    30    10    31 1   
    31    10    32 1   
    32    11    33 1   
    33    11    34 1   
    34    12    35 1   
    35    14    36 1   
@<TRIPOS>SUBSTRUCTURE
     1 Q7Y         1 TEMP              0 ****  ****    0 ROOT
