@<TRIPOS>MOLECULE
Q7Z
   63    66     1     0     0
SMALL
No Charge or Current Charge


@<TRIPOS>ATOM
      1 O3          27.6220    29.6910    13.3760 os         1 Q7Z      -0.289100
      2 C4          29.7970    28.7480    12.9410 ca         1 Q7Z       0.096100
      3 C5          30.9420    28.6470    12.1170 ca         1 Q7Z      -0.150000
      4 C6          31.0150    29.3780    10.9180 ca         1 Q7Z      -0.127000
      5 N1          26.6000    33.2320    12.7850 n          1 Q7Z      -0.423800
      6 C7          29.9520    30.2110    10.5180 ca         1 Q7Z       0.312000
      7 C8          28.8360    30.3360    11.3510 ca         1 Q7Z      -0.226000
      8 N2          27.9470    33.0090     8.6950 n3         1 Q7Z      -0.731600
      9 C9          28.7410    29.6060    12.5580 ca         1 Q7Z       0.135100
     10 C10         26.5870    30.6870    13.1820 c3         1 Q7Z       0.077600
     11 C11         27.0900    32.1190    13.5190 c          1 Q7Z       0.568100
     12 C12         27.0840    34.5950    13.1160 c3         1 Q7Z       0.081300
     13 N3          31.1300    32.9380     5.2750 na         1 Q7Z      -0.313400
     14 C13         25.5110    33.1320    11.7790 c3         1 Q7Z       0.107000
     15 C14         25.9870    32.8120    10.3380 c3         1 Q7Z      -0.105400
     16 C15         27.2440    33.5900     9.8690 c3         1 Q7Z       0.158800
     17 N4          32.0010    30.6720     5.7220 nb         1 Q7Z      -0.232000
     18 C1          29.8740    27.0470    18.2510 c3         1 Q7Z       0.145900
     19 O1          30.2890    27.5080    16.9550 os         1 Q7Z      -0.435000
     20 C2          30.2470    26.5040    15.9210 c3         1 Q7Z       0.159600
     21 C3          30.7070    27.1340    14.5870 c3         1 Q7Z       0.161600
     22 O2          29.6820    28.0360    14.1230 os         1 Q7Z      -0.315100
     23 C16         27.0630    32.8290     7.5120 c3         1 Q7Z       0.142100
     24 C17         29.1640    33.7970     8.3640 c3         1 Q7Z       0.229000
     25 C18         29.9980    33.2050     7.2500 cc         1 Q7Z      -0.112400
     26 C19         30.3180    33.8090     6.0410 cd         1 Q7Z      -0.175100
     27 C20         31.3100    31.7870     6.0190 ca         1 Q7Z       0.144500
     28 C21         31.9860    29.6980     6.6620 ca         1 Q7Z       0.178900
     29 N5          31.3500    29.7360     7.8560 nb         1 Q7Z      -0.290000
     30 C22         30.6720    30.8640     8.1390 ca         1 Q7Z       0.438900
     31 N6          29.9650    30.9430     9.3290 nu         1 Q7Z      -0.933900
     32 C23         30.6390    31.9140     7.2090 ca         1 Q7Z      -0.243800
     33 H1          31.7790    28.0100    12.3870 ha         1 Q7Z       0.117000
     34 H2          31.9090    29.2970    10.3090 ha         1 Q7Z       0.151000
     35 H3          28.0430    30.9940    11.0360 ha         1 Q7Z       0.117000
     36 H5          26.1980    30.6390    12.1630 h1         1 Q7Z       0.067700
     37 H6          25.7440    30.4880    13.8530 h1         1 Q7Z       0.067700
     38 H7          28.1810    34.6150    13.1010 h1         1 Q7Z       0.044700
     39 H8          26.7130    35.3270    12.3870 h1         1 Q7Z       0.044700
     40 H9          26.7330    34.8790    14.1160 h1         1 Q7Z       0.044700
     41 H10         31.5140    33.1160     4.3520 hn         1 Q7Z       0.364000
     42 H11         24.9790    34.0920    11.7530 h1         1 Q7Z       0.049200
     43 H12         24.7720    32.3850    12.0980 h1         1 Q7Z       0.049200
     44 H13         25.1580    33.0220     9.6520 hc         1 Q7Z       0.054700
     45 H14         26.1720    31.7380    10.2490 hc         1 Q7Z       0.054700
     46 H15         27.9640    33.6200    10.6960 h1         1 Q7Z       0.041700
     47 H16         26.9520    34.6290     9.6650 h1         1 Q7Z       0.041700
     48 H17         29.9320    27.8620    18.9830 h1         1 Q7Z       0.027367
     49 H18         28.8370    26.6870    18.2220 h1         1 Q7Z       0.027367
     50 H19         30.5170    26.2280    18.5980 h1         1 Q7Z       0.027367
     51 H20         29.2320    26.1000    15.8050 h1         1 Q7Z       0.029200
     52 H21         30.9190    25.6730    16.1710 h1         1 Q7Z       0.029200
     53 H22         30.8680    26.3330    13.8550 h1         1 Q7Z       0.039700
     54 H23         31.6570    27.6620    14.7410 h1         1 Q7Z       0.039700
     55 H24         26.2180    32.1690     7.7440 h1         1 Q7Z       0.038367
     56 H25         26.6640    33.7940     7.1710 h1         1 Q7Z       0.038367
     57 H26         27.6060    32.3690     6.6770 h1         1 Q7Z       0.038367
     58 H27         29.8060    33.8830     9.2520 h1         1 Q7Z       0.043200
     59 H28         28.8800    34.8200     8.0790 h1         1 Q7Z       0.043200
     60 H29         30.0310    34.7930     5.6770 h4         1 Q7Z       0.215000
     61 H30         32.5390    28.7890     6.4320 h5         1 Q7Z       0.044100
     62 H31         29.2210    31.6510     9.2520 hn         1 Q7Z       0.541000
     63 O4          27.9420    32.2940    14.3840 o          1 Q7Z      -0.563100
@<TRIPOS>BOND
     1     1     9 1   
     2     1    10 1   
     3     2     3 ar  
     4     2     9 ar  
     5     2    22 1   
     6     3     4 ar  
     7     3    33 1   
     8     4     6 ar  
     9     4    34 1   
    10     5    11 1   
    11     5    12 1   
    12     5    14 1   
    13     6     7 ar  
    14     6    31 1   
    15     7     9 ar  
    16     7    35 1   
    17     8    16 1   
    18     8    23 1   
    19     8    24 1   
    20    10    11 1   
    21    10    36 1   
    22    10    37 1   
    23    11    63 2   
    24    12    38 1   
    25    12    39 1   
    26    12    40 1   
    27    13    26 1   
    28    13    27 1   
    29    13    41 1   
    30    14    15 1   
    31    14    42 1   
    32    14    43 1   
    33    15    16 1   
    34    15    44 1   
    35    15    45 1   
    36    16    46 1   
    37    16    47 1   
    38    17    27 ar  
    39    17    28 ar  
    40    18    19 1   
    41    18    48 1   
    42    18    49 1   
    43    18    50 1   
    44    19    20 1   
    45    20    21 1   
    46    20    51 1   
    47    20    52 1   
    48    21    22 1   
    49    21    53 1   
    50    21    54 1   
    51    23    55 1   
    52    23    56 1   
    53    23    57 1   
    54    24    25 1   
    55    24    58 1   
    56    24    59 1   
    57    25    26 2   
    58    25    32 1   
    59    26    60 1   
    60    27    32 ar  
    61    28    29 ar  
    62    28    61 1   
    63    29    30 ar  
    64    30    31 1   
    65    30    32 ar  
    66    31    62 1   
@<TRIPOS>SUBSTRUCTURE
     1 Q7Z         1 TEMP              0 ****  ****    0 ROOT
