@<TRIPOS>MOLECULE
Q7Z
   63    66     1     0     0
SMALL
bcc


@<TRIPOS>ATOM
      1 O3          27.8770    29.9590    13.5740 os         1 Q7Z      -0.265900
      2 C4          29.7410    28.7020    12.9250 ca         1 Q7Z       0.096100
      3 C5          30.7290    28.4260    11.9960 ca         1 Q7Z      -0.168000
      4 C6          30.8480    29.1430    10.8040 ca         1 Q7Z      -0.145000
      5 N1          26.7580    33.3130    12.7930 n          1 Q7Z      -0.490800
      6 C7          29.9640    30.1780    10.5350 ca         1 Q7Z       0.173600
      7 C8          28.9730    30.4730    11.4840 ca         1 Q7Z      -0.244000
      8 N2          27.8670    32.9380     8.6900 n3         1 Q7Z      -0.731600
      9 C9          28.8410    29.7490    12.6510 ca         1 Q7Z       0.135100
     10 C10         26.8790    30.8990    13.2750 c3         1 Q7Z       0.054400
     11 C11         27.4020    32.3280    13.4510 c          1 Q7Z       0.635100
     12 C12         27.0970    34.7010    13.0570 c3         1 Q7Z       0.081300
     13 N3          31.0960    32.9140     5.3790 na         1 Q7Z      -0.263100
     14 C13         25.6730    33.0930    11.8410 c3         1 Q7Z       0.107000
     15 C14         26.1110    32.6610    10.4390 c3         1 Q7Z      -0.105400
     16 C15         27.1840    33.5510     9.8250 c3         1 Q7Z       0.158800
     17 N4          32.2780    30.9110     5.9780 nb         1 Q7Z      -0.758000
     18 C1          29.8870    27.0450    18.0500 c3         1 Q7Z       0.122700
     19 O1          30.2330    27.4870    16.7630 os         1 Q7Z      -0.388600
     20 C2          30.0820    26.4870    15.7910 c3         1 Q7Z       0.136400
     21 C3          30.4680    27.0320    14.4410 c3         1 Q7Z       0.138400
     22 O2          29.5500    28.0480    14.0890 os         1 Q7Z      -0.291900
     23 C16         26.9590    32.5320     7.6300 c3         1 Q7Z       0.142100
     24 C17         28.8930    33.8470     8.1820 c3         1 Q7Z       0.229000
     25 C18         29.8120    33.2050     7.1950 cc         1 Q7Z      -0.112400
     26 C19         30.1530    33.7120     5.9740 cd         1 Q7Z      -0.125100
     27 C20         31.3830    31.8790     6.2010 ca         1 Q7Z       0.472800
     28 C21         32.3630    30.0580     6.9760 ca         1 Q7Z       0.704900
     29 N5          31.6590    30.0400     8.1090 nb         1 Q7Z      -0.816000
     30 C22         30.7470    30.9890     8.3080 ca         1 Q7Z       0.767200
     31 N6          29.9560    30.9910     9.4040 nu         1 Q7Z      -0.740300
     32 C23         30.5900    32.0110     7.3470 ca         1 Q7Z      -0.374400
     33 H1          31.4360    27.6270    12.1710 ha         1 Q7Z       0.135000
     34 H2          31.6210    28.8800    10.1020 ha         1 Q7Z       0.169000
     35 H3          28.3100    31.3020    11.2820 ha         1 Q7Z       0.135000
     36 H5          26.4430    30.6980    12.2940 h1         1 Q7Z       0.067700
     37 H6          26.0850    30.7480    14.0100 h1         1 Q7Z       0.067700
     38 H7          27.9220    34.7630    13.7580 h1         1 Q7Z       0.044700
     39 H8          27.3870    35.2130    12.1390 h1         1 Q7Z       0.044700
     40 H9          26.2370    35.2230    13.4780 h1         1 Q7Z       0.044700
     41 H10         31.5160    33.0770     4.4780 hn         1 Q7Z       0.313700
     42 H11         25.1240    34.0320    11.7770 h1         1 Q7Z       0.049200
     43 H12         24.9600    32.3670    12.2360 h1         1 Q7Z       0.049200
     44 H13         25.2130    32.6540     9.8180 hc         1 Q7Z       0.054700
     45 H14         26.4670    31.6270    10.4560 hc         1 Q7Z       0.054700
     46 H15         27.9580    33.7530    10.5710 h1         1 Q7Z       0.041700
     47 H16         26.7430    34.5220     9.5490 h1         1 Q7Z       0.041700
     48 H17         30.0460    27.8700    18.7440 h1         1 Q7Z       0.027367
     49 H18         28.8350    26.7390    18.1120 h1         1 Q7Z       0.027367
     50 H19         30.5020    26.1980    18.3750 h1         1 Q7Z       0.027367
     51 H20         29.0500    26.1100    15.7630 h1         1 Q7Z       0.029200
     52 H21         30.7280    25.6240    16.0030 h1         1 Q7Z       0.029200
     53 H22         30.4470    26.2120    13.7140 h1         1 Q7Z       0.039700
     54 H23         31.4920    27.4240    14.4690 h1         1 Q7Z       0.039700
     55 H24         26.2480    31.7930     7.9940 h1         1 Q7Z       0.038367
     56 H25         26.3940    33.3800     7.2170 h1         1 Q7Z       0.038367
     57 H26         27.5200    32.0750     6.8180 h1         1 Q7Z       0.038367
     58 H27         29.4690    34.2000     9.0430 h1         1 Q7Z       0.043200
     59 H28         28.4440    34.7430     7.7260 h1         1 Q7Z       0.043200
     60 H29         29.7960    34.6020     5.4810 h4         1 Q7Z       0.165000
     61 H30         33.0880    29.2590     6.8680 h5         1 Q7Z       0.044100
     62 H31         29.1570    31.6330     9.3260 hn         1 Q7Z       0.485800
     63 O4          28.3390    32.5200    14.2080 o          1 Q7Z      -0.563100
@<TRIPOS>BOND
     1     1     9 1   
     2     1    10 1   
     3     2     3 ar  
     4     2     9 ar  
     5     2    22 1   
     6     3     4 ar  
     7     3    33 1   
     8     4     6 ar  
     9     4    34 1   
    10     5    11 1   
    11     5    12 1   
    12     5    14 1   
    13     6     7 ar  
    14     6    31 1   
    15     7     9 ar  
    16     7    35 1   
    17     8    16 1   
    18     8    23 1   
    19     8    24 1   
    20    10    11 1   
    21    10    36 1   
    22    10    37 1   
    23    11    63 2   
    24    12    38 1   
    25    12    39 1   
    26    12    40 1   
    27    13    26 1   
    28    13    27 1   
    29    13    41 1   
    30    14    15 1   
    31    14    42 1   
    32    14    43 1   
    33    15    16 1   
    34    15    44 1   
    35    15    45 1   
    36    16    46 1   
    37    16    47 1   
    38    17    27 ar  
    39    17    28 ar  
    40    18    19 1   
    41    18    48 1   
    42    18    49 1   
    43    18    50 1   
    44    19    20 1   
    45    20    21 1   
    46    20    51 1   
    47    20    52 1   
    48    21    22 1   
    49    21    53 1   
    50    21    54 1   
    51    23    55 1   
    52    23    56 1   
    53    23    57 1   
    54    24    25 1   
    55    24    58 1   
    56    24    59 1   
    57    25    26 2   
    58    25    32 1   
    59    26    60 1   
    60    27    32 ar  
    61    28    29 ar  
    62    28    61 1   
    63    29    30 ar  
    64    30    31 1   
    65    30    32 ar  
    66    31    62 1   
@<TRIPOS>SUBSTRUCTURE
     1 Q7Z         1 TEMP              0 ****  ****    0 ROOT
