@<TRIPOS>MOLECULE
Q80
   53    56     1     0     0
SMALL
No Charge or Current Charge


@<TRIPOS>ATOM
      1 ClBF        -6.9240    -4.6770    -1.0200 cl         1 Q80      -0.204000
      2 CAB         -5.7190    -3.4710    -0.5880 ca         1 Q80       0.119000
      3 CAC         -4.7120    -3.1260    -1.5040 ca         1 Q80      -0.102000
      4 CAD         -3.7480    -2.1620    -1.1580 ca         1 Q80      -0.099000
      5 CAA         -5.7650    -2.8540     0.6730 ca         1 Q80      -0.102000
      6 CAF         -4.8020    -1.8900     1.0190 ca         1 Q80      -0.099000
      7 CAE         -3.7880    -1.5410     0.1060 ca         1 Q80      -0.083300
      8 CAG         -2.7480    -0.4920     0.4780 c3         1 Q80      -0.025100
      9 CAH         -3.2060     0.9370     0.0950 c3         1 Q80      -0.085400
     10 CAI         -2.2000     2.0700     0.4250 c5         1 Q80       0.381000
     11 OAP         -0.9360     1.7840    -0.2060 os         1 Q80      -0.466000
     12 CAJ         -2.7950     3.4610     0.0050 c3         1 Q80       0.051600
     13 NAK         -1.8710     4.5770    -0.2900 na         1 Q80      -0.167500
     14 CAO         -1.1380     4.7370    -1.4480 cc         1 Q80       0.392400
     15 NAN         -0.4270     5.8560    -1.4020 nd         1 Q80      -0.674000
     16 CAM         -0.7230     6.4380    -0.1860 cd         1 Q80       0.219900
     17 CAL         -1.6180     5.6690     0.5120 cc         1 Q80      -0.227000
     18 OAS         -1.8930     2.0230     1.8290 os         1 Q80      -0.469000
     19 CAR         -0.5930     2.6260     1.9900 c5         1 Q80       0.135600
     20 CAQ          0.1150     2.3440     0.6290 c5         1 Q80       0.142300
     21 CAT          1.2800     1.3340     0.7180 c3         1 Q80       0.042600
     22 SAU          2.1240     1.0670    -0.9120 ss         1 Q80      -0.308300
     23 CAV          3.3910    -0.1440    -0.5540 ca         1 Q80       0.478300
     24 CBA          4.1890    -0.6280    -1.6000 ca         1 Q80      -0.157000
     25 NAW          3.5420    -0.5480     0.7240 nb         1 Q80      -0.704000
     26 CAX          4.5010    -1.4610     0.9930 ca         1 Q80       0.410900
     27 CAY          5.3420    -2.0070     0.0080 ca         1 Q80      -0.272300
     28 CAZ          5.1850    -1.5750    -1.3250 ca         1 Q80      -0.012000
     29 CBB          6.4010    -3.0260     0.4110 c3         1 Q80       0.368300
     30 FBD          6.9000    -3.7070    -0.6460 f          1 Q80      -0.112000
     31 FBE          7.4460    -2.4290     1.0250 f          1 Q80      -0.112000
     32 FBC          5.9100    -3.9480     1.2690 f          1 Q80      -0.112000
     33 HAC         -4.6790    -3.6040    -2.4790 ha         1 Q80       0.130000
     34 HAD         -2.9720    -1.8970    -1.8730 ha         1 Q80       0.118000
     35 HAA         -6.5470    -3.1220     1.3800 ha         1 Q80       0.130000
     36 HAF         -4.8450    -1.4140     1.9970 ha         1 Q80       0.118000
     37 HAG         -2.5440    -0.5340     1.5550 hc         1 Q80       0.057700
     38 HAGA        -1.7970    -0.7160    -0.0200 hc         1 Q80       0.057700
     39 HAH         -3.4220     0.9500    -0.9800 hc         1 Q80       0.061200
     40 HAHA        -4.1580     1.1430     0.5990 hc         1 Q80       0.061200
     41 HAJ         -3.4070     3.3110    -0.8930 h1         1 Q80       0.077200
     42 HAJA        -3.4820     3.7840     0.7960 h1         1 Q80       0.077200
     43 HAO         -1.1610     4.0170    -2.2590 h5         1 Q80       0.058100
     44 HAM         -0.2790     7.3780     0.1170 h4         1 Q80       0.037100
     45 HAL         -2.0710     5.8190     1.4840 h4         1 Q80       0.162000
     46 HAR         -0.7060     3.7020     2.1740 h1         1 Q80       0.064200
     47 HARA        -0.0770     2.1770     2.8490 h1         1 Q80       0.064200
     48 HAQ          0.4900     3.2750     0.1850 h1         1 Q80       0.086700
     49 HAT          2.0190     1.7040     1.4400 h1         1 Q80       0.088200
     50 HATA         0.8940     0.3740     1.0850 h1         1 Q80       0.088200
     51 HBA          4.0330    -0.2680    -2.6130 ha         1 Q80       0.143000
     52 HAX          4.5960    -1.7600     2.0370 h4         1 Q80       0.037100
     53 HAZ          5.8150    -1.9560    -2.1280 ha         1 Q80       0.136000
@<TRIPOS>BOND
     1     1     2 1   
     2     2     3 ar  
     3     2     5 ar  
     4     3     4 ar  
     5     3    33 1   
     6     4     7 ar  
     7     4    34 1   
     8     5     6 ar  
     9     5    35 1   
    10     6     7 ar  
    11     6    36 1   
    12     7     8 1   
    13     8     9 1   
    14     8    37 1   
    15     8    38 1   
    16     9    10 1   
    17     9    39 1   
    18     9    40 1   
    19    10    11 1   
    20    10    12 1   
    21    10    18 1   
    22    11    20 1   
    23    12    13 1   
    24    12    41 1   
    25    12    42 1   
    26    13    14 1   
    27    13    17 1   
    28    14    15 2   
    29    14    43 1   
    30    15    16 1   
    31    16    17 2   
    32    16    44 1   
    33    17    45 1   
    34    18    19 1   
    35    19    20 1   
    36    19    46 1   
    37    19    47 1   
    38    20    21 1   
    39    20    48 1   
    40    21    22 1   
    41    21    49 1   
    42    21    50 1   
    43    22    23 1   
    44    23    24 ar  
    45    23    25 ar  
    46    24    28 ar  
    47    24    51 1   
    48    25    26 ar  
    49    26    27 ar  
    50    26    52 1   
    51    27    28 ar  
    52    27    29 1   
    53    28    53 1   
    54    29    30 1   
    55    29    31 1   
    56    29    32 1   
@<TRIPOS>SUBSTRUCTURE
     1 Q80         1 TEMP              0 ****  ****    0 ROOT
