@<TRIPOS>MOLECULE
Q80
   53    56     1     0     0
SMALL
bcc


@<TRIPOS>ATOM
      1 CLBF        -6.9840    -4.5080    -0.8120 cl         1 Q80      -0.112400
      2 CAB         -5.8200    -3.3010    -0.3670 ca         1 Q80       0.027400
      3 CAC         -4.6100    -3.2380    -1.0410 ca         1 Q80      -0.120000
      4 CAD         -3.6860    -2.2690    -0.6770 ca         1 Q80      -0.117000
      5 CAA         -6.1120    -2.4160     0.6590 ca         1 Q80      -0.120000
      6 CAF         -5.1730    -1.4560     1.0070 ca         1 Q80      -0.117000
      7 CAE         -3.9500    -1.3660     0.3490 ca         1 Q80      -0.083300
      8 CAG         -2.9600    -0.2920     0.7030 c3         1 Q80      -0.025100
      9 CAH         -3.2470     0.9880    -0.0810 c3         1 Q80      -0.085400
     10 CAI         -2.2410     2.1080     0.1610 c5         1 Q80       0.334600
     11 OAP         -0.9670     1.7000    -0.2680 os         1 Q80      -0.419600
     12 CAJ         -2.6800     3.3690    -0.5960 c3         1 Q80       0.022300
     13 NAK         -1.6870     4.4100    -0.5290 na         1 Q80      -0.188900
     14 CAO         -0.6880     4.6080    -1.4190 cc         1 Q80       0.392400
     15 NAN          0.1230     5.5600    -1.0400 nd         1 Q80      -0.674000
     16 CAM         -0.3680     5.9970     0.1590 cd         1 Q80       0.285200
     17 CAL         -1.4870     5.2930     0.4960 cc         1 Q80      -0.259600
     18 OAS         -2.1260     2.4270     1.5280 os         1 Q80      -0.422600
     19 CAR         -0.8460     2.0600     1.9960 c5         1 Q80       0.112400
     20 CAQ         -0.0070     2.0120     0.7250 c5         1 Q80       0.119100
     21 CAT          1.0640     0.9470     0.7560 c3         1 Q80      -0.005300
     22 SAU          1.8890     0.9070    -0.8570 ss         1 Q80      -0.260400
     23 CAV          3.2860    -0.1000    -0.5320 ca         1 Q80       0.543600
     24 CBA          4.1860    -0.3170    -1.5830 ca         1 Q80      -0.240300
     25 NAW          3.4480    -0.6220     0.6690 nb         1 Q80      -0.704000
     26 CAX          4.5140    -1.3820     0.8960 ca         1 Q80       0.476200
     27 CAY          5.4620    -1.6580    -0.0720 ca         1 Q80      -0.337600
     28 CAZ          5.2850    -1.1070    -1.3430 ca         1 Q80      -0.030000
     29 CBB          6.6560    -2.5070     0.2040 c3         1 Q80       0.732200
     30 FBD          6.7320    -3.5440    -0.6430 f          1 Q80      -0.233300
     31 FBE          7.7970    -1.8170     0.0590 f          1 Q80      -0.233300
     32 FBC          6.6550    -3.0080     1.4420 f          1 Q80      -0.233300
     33 HAC         -4.3880    -3.9340    -1.8380 ha         1 Q80       0.148000
     34 HAD         -2.7400    -2.2240    -1.2040 ha         1 Q80       0.136000
     35 HAA         -7.0570    -2.4710     1.1830 ha         1 Q80       0.148000
     36 HAF         -5.4020    -0.7650     1.8110 ha         1 Q80       0.136000
     37 HAG         -3.0110    -0.0920     1.7760 hc         1 Q80       0.057700
     38 HAGA        -1.9490    -0.6440     0.4870 hc         1 Q80       0.057700
     39 HAH         -3.2610     0.7660    -1.1520 hc         1 Q80       0.061200
     40 HAHA        -4.2450     1.3560     0.1710 hc         1 Q80       0.061200
     41 HAJ         -2.8560     3.1250    -1.6440 h1         1 Q80       0.077200
     42 HAJA        -3.6200     3.7370    -0.1850 h1         1 Q80       0.077200
     43 HAO         -0.6100     4.0300    -2.3280 h5         1 Q80       0.058100
     44 HAM          0.1020     6.7950     0.7130 h4         1 Q80       0.037100
     45 HAL         -2.1480     5.3480     1.3450 h4         1 Q80       0.180000
     46 HAR         -0.4870     2.8070     2.7040 h1         1 Q80       0.064200
     47 HARA        -0.8710     1.0860     2.4990 h1         1 Q80       0.064200
     48 HAQ          0.4510     2.9890     0.5270 h1         1 Q80       0.086700
     49 HAT          1.7970     1.1880     1.5260 h1         1 Q80       0.088200
     50 HATA         0.6390    -0.0330     0.9780 h1         1 Q80       0.088200
     51 HBA          4.0230     0.1260    -2.5560 ha         1 Q80       0.161000
     52 HAX          4.5980    -1.7820     1.8990 h4         1 Q80       0.037100
     53 HAZ          5.9950    -1.2880    -2.1390 ha         1 Q80       0.154000
@<TRIPOS>BOND
     1     1     2 1   
     2     2     3 ar  
     3     2     5 ar  
     4     3     4 ar  
     5     3    33 1   
     6     4     7 ar  
     7     4    34 1   
     8     5     6 ar  
     9     5    35 1   
    10     6     7 ar  
    11     6    36 1   
    12     7     8 1   
    13     8     9 1   
    14     8    37 1   
    15     8    38 1   
    16     9    10 1   
    17     9    39 1   
    18     9    40 1   
    19    10    11 1   
    20    10    12 1   
    21    10    18 1   
    22    11    20 1   
    23    12    13 1   
    24    12    41 1   
    25    12    42 1   
    26    13    14 1   
    27    13    17 1   
    28    14    15 2   
    29    14    43 1   
    30    15    16 1   
    31    16    17 2   
    32    16    44 1   
    33    17    45 1   
    34    18    19 1   
    35    19    20 1   
    36    19    46 1   
    37    19    47 1   
    38    20    21 1   
    39    20    48 1   
    40    21    22 1   
    41    21    49 1   
    42    21    50 1   
    43    22    23 1   
    44    23    24 ar  
    45    23    25 ar  
    46    24    28 ar  
    47    24    51 1   
    48    25    26 ar  
    49    26    27 ar  
    50    26    52 1   
    51    27    28 ar  
    52    27    29 1   
    53    28    53 1   
    54    29    30 1   
    55    29    31 1   
    56    29    32 1   
@<TRIPOS>SUBSTRUCTURE
     1 Q80         1 TEMP              0 ****  ****    0 ROOT
