@<TRIPOS>MOLECULE
Q82
   82    86     1     0     0
SMALL
abcg2


@<TRIPOS>ATOM
      1 N11         -8.6730    13.9860    27.6870 ne         1 Q82      -0.641700
      2 O4         -12.1800    18.3250    29.2200 oh         1 Q82      -0.667500
      3 O5         -10.5680    19.5390    27.3560 oh         1 Q82      -0.667500
      4 N7          -9.3180    16.0640    26.7280 nh         1 Q82      -0.786600
      5 N2          -9.7700    15.5290    28.9620 nh         1 Q82      -0.786600
      6 C1          -9.2400    15.1790    27.7630 c2         1 Q82       0.943100
      7 C2          -9.3700    14.7600    30.1590 c3         1 Q82       0.278100
      8 C3         -11.0650    16.2360    29.0590 c3         1 Q82       0.226000
      9 C4         -10.9380    17.7410    28.8320 c3         1 Q82       0.141300
     10 C5         -10.6010    18.1100    27.4030 c3         1 Q82       0.141300
     11 C6          -9.2650    17.5220    26.9300 c3         1 Q82       0.226000
     12 C7          -9.6620    15.5980    25.3700 c3         1 Q82       0.278100
     13 C20         -9.3560    15.6090    31.4020 ca         1 Q82      -0.111300
     14 C21         -8.3990    16.6130    31.5710 ca         1 Q82      -0.095000
     15 C22         -8.3910    17.3980    32.7120 ca         1 Q82      -0.094500
     16 C23         -9.3390    17.2030    33.7210 ca         1 Q82      -0.077800
     17 C24        -10.2860    16.1980    33.5610 ca         1 Q82      -0.094500
     18 C25        -10.2920    15.4100    32.4110 ca         1 Q82      -0.095000
     19 C31        -12.1720    15.5600    28.2320 c3         1 Q82      -0.041600
     20 C32        -12.4320    14.1490    28.6930 ca         1 Q82      -0.088300
     21 C33        -11.9960    13.0580    27.9430 ca         1 Q82      -0.102500
     22 C34        -12.1860    11.7570    28.3990 ca         1 Q82      -0.107000
     23 C35        -12.8200    11.5300    29.6150 ca         1 Q82      -0.110000
     24 C36        -13.2700    12.6120    30.3680 ca         1 Q82      -0.107000
     25 C37        -13.0770    13.9090    29.9080 ca         1 Q82      -0.102500
     26 C61         -8.0590    17.9550    27.7790 c3         1 Q82      -0.041600
     27 C62         -6.7470    17.7240    27.0790 ca         1 Q82      -0.088300
     28 C63         -6.2920    18.6270    26.1160 ca         1 Q82      -0.102500
     29 C64         -5.0970    18.4080    25.4430 ca         1 Q82      -0.107000
     30 C65         -4.3350    17.2770    25.7230 ca         1 Q82      -0.110000
     31 C66         -4.7780    16.3720    26.6810 ca         1 Q82      -0.107000
     32 C67         -5.9740    16.5980    27.3560 ca         1 Q82      -0.102500
     33 C70         -8.8320    16.2080    24.2670 ca         1 Q82      -0.111300
     34 C71         -7.4760    15.9160    24.1220 ca         1 Q82      -0.095000
     35 C72         -6.7410    16.4860    23.0940 ca         1 Q82      -0.094500
     36 C73         -7.3350    17.3640    22.1870 ca         1 Q82      -0.077800
     37 C74         -8.6880    17.6580    22.3340 ca         1 Q82      -0.094500
     38 C75         -9.4280    17.0860    23.3630 ca         1 Q82      -0.095000
     39 C12         -7.8490    13.5880    26.7660 cg         1 Q82       0.433000
     40 N13         -7.0990    13.1020    26.0140 n1         1 Q82      -0.551000
     41 C76         -6.5310    17.9590    21.0680 c3         1 Q82       0.206900
     42 C26         -9.3080    18.0910    34.9370 c3         1 Q82       0.206900
     43 O76         -6.3950    16.9740    20.0280 oh         1 Q82      -0.661000
     44 O26        -10.2450    17.6390    35.9090 oh         1 Q82      -0.661000
     45 HO5        -10.6570    19.8230    26.4380 ho         1 Q82       0.458500
     46 H21A       -10.0470    13.9140    30.2910 h1         1 Q82       0.065700
     47 H22A        -8.3780    14.3640    29.9630 h1         1 Q82       0.065700
     48 H3         -11.3510    16.1420    30.1040 h1         1 Q82       0.079200
     49 H4         -10.1440    18.1100    29.4900 h1         1 Q82       0.056700
     50 H5         -11.3930    17.7460    26.7440 h1         1 Q82       0.056700
     51 H6          -9.1050    17.9280    25.9310 h1         1 Q82       0.079200
     52 H71A        -9.5810    14.5150    25.3550 h1         1 Q82       0.065700
     53 H72A       -10.7130    15.8400    25.1860 h1         1 Q82       0.065700
     54 H21         -7.6500    16.7740    30.8050 ha         1 Q82       0.119500
     55 H22         -7.6380    18.1690    32.8270 ha         1 Q82       0.120250
     56 H24        -11.0230    16.0280    34.3330 ha         1 Q82       0.120250
     57 H25        -11.0400    14.6340    32.2980 ha         1 Q82       0.119500
     58 H311       -13.0710    16.1660    28.3520 hc         1 Q82       0.063450
     59 H312       -11.9220    15.5600    27.1730 hc         1 Q82       0.063450
     60 H33        -11.4960    13.2280    26.9970 ha         1 Q82       0.111750
     61 H34        -11.8350    10.9220    27.8050 ha         1 Q82       0.115000
     62 H35        -12.9680    10.5180    29.9740 ha         1 Q82       0.113000
     63 H36        -13.7710    12.4450    31.3140 ha         1 Q82       0.115000
     64 H37        -13.4230    14.7470    30.5030 ha         1 Q82       0.111750
     65 H611        -8.1850    19.0180    27.9870 hc         1 Q82       0.063450
     66 H612        -8.0650    17.4360    28.7340 hc         1 Q82       0.063450
     67 H63         -6.8860    19.5050    25.8880 ha         1 Q82       0.111750
     68 H64         -4.7620    19.1150    24.6950 ha         1 Q82       0.115000
     69 H65         -3.4070    17.1010    25.1950 ha         1 Q82       0.113000
     70 H66         -4.1940    15.4870    26.9030 ha         1 Q82       0.115000
     71 H67         -6.3090    15.8910    28.1060 ha         1 Q82       0.111750
     72 H71         -6.9920    15.2530    24.8230 ha         1 Q82       0.119500
     73 H72         -5.6860    16.2590    23.0030 ha         1 Q82       0.120250
     74 H74         -9.1660    18.3440    21.6430 ha         1 Q82       0.120250
     75 H75        -10.4790    17.3280    23.4710 ha         1 Q82       0.119500
     76 H761        -7.0320    18.8510    20.6790 h1         1 Q82       0.028950
     77 H762        -5.5410    18.2500    21.4330 h1         1 Q82       0.028950
     78 H261        -8.2930    18.0960    35.3530 h1         1 Q82       0.028950
     79 H262        -9.5390    19.1200    34.6350 h1         1 Q82       0.028950
     80 H76         -5.8170    17.3410    19.3470 ho         1 Q82       0.442500
     81 HO6        -10.2240    18.2530    36.6520 ho         1 Q82       0.442500
     82 HO4        -12.1660    19.2390    28.9020 ho         1 Q82       0.458500
@<TRIPOS>BOND
     1     1     6 2   
     2     1    39 1   
     3     2     9 1   
     4     2    82 1   
     5     3    10 1   
     6     3    45 1   
     7     4     6 1   
     8     4    11 1   
     9     4    12 1   
    10     5     6 1   
    11     5     7 1   
    12     5     8 1   
    13     7    13 1   
    14     7    46 1   
    15     7    47 1   
    16     8     9 1   
    17     8    19 1   
    18     8    48 1   
    19     9    10 1   
    20     9    49 1   
    21    10    11 1   
    22    10    50 1   
    23    11    26 1   
    24    11    51 1   
    25    12    33 1   
    26    12    52 1   
    27    12    53 1   
    28    13    14 ar  
    29    13    18 ar  
    30    14    15 ar  
    31    14    54 1   
    32    15    16 ar  
    33    15    55 1   
    34    16    17 ar  
    35    16    42 1   
    36    17    18 ar  
    37    17    56 1   
    38    18    57 1   
    39    19    20 1   
    40    19    58 1   
    41    19    59 1   
    42    20    21 ar  
    43    20    25 ar  
    44    21    22 ar  
    45    21    60 1   
    46    22    23 ar  
    47    22    61 1   
    48    23    24 ar  
    49    23    62 1   
    50    24    25 ar  
    51    24    63 1   
    52    25    64 1   
    53    26    27 1   
    54    26    65 1   
    55    26    66 1   
    56    27    28 ar  
    57    27    32 ar  
    58    28    29 ar  
    59    28    67 1   
    60    29    30 ar  
    61    29    68 1   
    62    30    31 ar  
    63    30    69 1   
    64    31    32 ar  
    65    31    70 1   
    66    32    71 1   
    67    33    34 ar  
    68    33    38 ar  
    69    34    35 ar  
    70    34    72 1   
    71    35    36 ar  
    72    35    73 1   
    73    36    37 ar  
    74    36    41 1   
    75    37    38 ar  
    76    37    74 1   
    77    38    75 1   
    78    39    40 3   
    79    41    43 1   
    80    41    76 1   
    81    41    77 1   
    82    42    44 1   
    83    42    78 1   
    84    42    79 1   
    85    43    80 1   
    86    44    81 1   
@<TRIPOS>SUBSTRUCTURE
     1 Q82         1 TEMP              0 ****  ****    0 ROOT
