@<TRIPOS>MOLECULE
Q82
   82    86     1     0     0
SMALL
No Charge or Current Charge


@<TRIPOS>ATOM
      1 N11         -8.4060    14.0640    27.7690 ne         1 Q82      -0.641700
      2 O4         -11.9810    18.5830    29.0900 oh         1 Q82      -0.667500
      3 O5         -10.2080    19.6820    27.2650 oh         1 Q82      -0.667500
      4 N7          -9.1500    16.0730    26.7350 nh         1 Q82      -0.786600
      5 N2          -9.6460    15.5910    28.9810 nh         1 Q82      -0.786600
      6 C1          -9.0650    15.1760    27.7930 c2         1 Q82       0.943100
      7 C2          -9.1930    14.9830    30.2600 c3         1 Q82       0.278100
      8 C3         -10.9360    16.3340    29.0410 c3         1 Q82       0.226000
      9 C4         -10.7650    17.8670    28.7960 c3         1 Q82       0.141300
     10 C5         -10.3100    18.2410    27.3610 c3         1 Q82       0.141300
     11 C6          -8.9790    17.5440    26.9210 c3         1 Q82       0.226000
     12 C7          -9.6860    15.6390    25.4150 c3         1 Q82       0.278100
     13 C20         -9.4250    15.7990    31.5330 ca         1 Q82      -0.111300
     14 C21         -8.6430    16.9390    31.8010 ca         1 Q82      -0.095000
     15 C22         -8.8640    17.6940    32.9660 ca         1 Q82      -0.094500
     16 C23         -9.8650    17.3150    33.8810 ca         1 Q82      -0.077800
     17 C24        -10.6390    16.1680    33.6190 ca         1 Q82      -0.094500
     18 C25        -10.4190    15.4130    32.4540 ca         1 Q82      -0.095000
     19 C31        -12.0940    15.6630    28.2480 c3         1 Q82      -0.041600
     20 C32        -12.2760    14.1910    28.6080 ca         1 Q82      -0.088300
     21 C33        -11.9100    13.1810    27.6970 ca         1 Q82      -0.102500
     22 C34        -12.0570    11.8270    28.0440 ca         1 Q82      -0.107000
     23 C35        -12.5720    11.4740    29.3020 ca         1 Q82      -0.110000
     24 C36        -12.9430    12.4780    30.2130 ca         1 Q82      -0.107000
     25 C37        -12.7970    13.8320    29.8670 ca         1 Q82      -0.102500
     26 C61         -7.7380    17.9370    27.7760 c3         1 Q82      -0.041600
     27 C62         -6.4240    17.4220    27.1980 ca         1 Q82      -0.088300
     28 C63         -5.8820    18.0120    26.0390 ca         1 Q82      -0.102500
     29 C64         -4.6760    17.5340    25.4970 ca         1 Q82      -0.107000
     30 C65         -4.0030    16.4660    26.1140 ca         1 Q82      -0.110000
     31 C66         -4.5340    15.8790    27.2750 ca         1 Q82      -0.107000
     32 C67         -5.7390    16.3590    27.8170 ca         1 Q82      -0.102500
     33 C70         -9.0200    16.2750    24.1960 ca         1 Q82      -0.111300
     34 C71         -7.6390    16.1150    23.9690 ca         1 Q82      -0.095000
     35 C72         -7.0250    16.7140    22.8560 ca         1 Q82      -0.094500
     36 C73         -7.7840    17.4820    21.9530 ca         1 Q82      -0.077800
     37 C74         -9.1650    17.6410    22.1760 ca         1 Q82      -0.094500
     38 C75         -9.7790    17.0420    23.2900 ca         1 Q82      -0.095000
     39 C12         -7.6690    13.6040    26.7790 cg         1 Q82       0.433000
     40 N13         -7.0350    13.0610    25.9680 n1         1 Q82      -0.551000
     41 C76         -7.1160    18.1400    20.7510 c3         1 Q82       0.206900
     42 C26        -10.1080    18.1370    35.1410 c3         1 Q82       0.206900
     43 O76         -7.1700    17.2730    19.6120 oh         1 Q82      -0.661000
     44 O26         -9.3010    17.6510    36.2190 oh         1 Q82      -0.661000
     45 HO5        -10.1570    19.9170    26.3110 ho         1 Q82       0.458500
     46 H21A        -9.6560    13.9930    30.3730 h1         1 Q82       0.065700
     47 H22A        -8.1090    14.8100    30.2120 h1         1 Q82       0.065700
     48 H3         -11.2880    16.2830    30.0760 h1         1 Q82       0.079200
     49 H4          -9.9850    18.2100    29.4880 h1         1 Q82       0.056700
     50 H5         -11.0920    17.9000    26.6700 h1         1 Q82       0.056700
     51 H6          -8.7690    17.9850    25.9400 h1         1 Q82       0.079200
     52 H71A        -9.6000    14.5520    25.2990 h1         1 Q82       0.065700
     53 H72A       -10.7620    15.8480    25.3720 h1         1 Q82       0.065700
     54 H21         -7.8630    17.2420    31.1070 ha         1 Q82       0.119500
     55 H22         -8.2540    18.5730    33.1590 ha         1 Q82       0.120250
     56 H24        -11.4120    15.8610    34.3200 ha         1 Q82       0.120250
     57 H25        -11.0260    14.5310    32.2650 ha         1 Q82       0.119500
     58 H311       -13.0260    16.1990    28.4630 hc         1 Q82       0.063450
     59 H312       -11.9370    15.7770    27.1740 hc         1 Q82       0.063450
     60 H33        -11.5060    13.4410    26.7220 ha         1 Q82       0.111750
     61 H34        -11.7690    11.0510    27.3370 ha         1 Q82       0.115000
     62 H35        -12.6850    10.4260    29.5710 ha         1 Q82       0.113000
     63 H36        -13.3430    12.2060    31.1880 ha         1 Q82       0.115000
     64 H37        -13.0850    14.6020    30.5780 ha         1 Q82       0.111750
     65 H611        -7.6870    19.0290    27.8490 hc         1 Q82       0.063450
     66 H612        -7.8610    17.5820    28.8030 hc         1 Q82       0.063450
     67 H63         -6.3990    18.8350    25.5510 ha         1 Q82       0.111750
     68 H64         -4.2660    17.9900    24.5990 ha         1 Q82       0.115000
     69 H65         -3.0710    16.0940    25.6930 ha         1 Q82       0.113000
     70 H66         -4.0140    15.0530    27.7540 ha         1 Q82       0.115000
     71 H67         -6.1420    15.8970    28.7150 ha         1 Q82       0.111750
     72 H71         -7.0350    15.5390    24.6650 ha         1 Q82       0.119500
     73 H72         -5.9570    16.5840    22.6990 ha         1 Q82       0.120250
     74 H74         -9.7630    18.2310    21.4850 ha         1 Q82       0.120250
     75 H75        -10.8470    17.1800    23.4480 ha         1 Q82       0.119500
     76 H761        -7.6230    19.0900    20.5320 h1         1 Q82       0.028950
     77 H762        -6.0730    18.3760    21.0010 h1         1 Q82       0.028950
     78 H261        -9.8750    19.1910    34.9350 h1         1 Q82       0.028950
     79 H262       -11.1730    18.0840    35.4070 h1         1 Q82       0.028950
     80 H76         -6.7270    17.7480    18.8750 ho         1 Q82       0.442500
     81 HO6         -9.5000    18.2160    36.9980 ho         1 Q82       0.442500
     82 HO4        -11.8500    19.4680    28.6780 ho         1 Q82       0.458500
@<TRIPOS>BOND
     1     1     6 2   
     2     1    39 1   
     3     2     9 1   
     4     2    82 1   
     5     3    10 1   
     6     3    45 1   
     7     4     6 1   
     8     4    11 1   
     9     4    12 1   
    10     5     6 1   
    11     5     7 1   
    12     5     8 1   
    13     7    13 1   
    14     7    46 1   
    15     7    47 1   
    16     8     9 1   
    17     8    19 1   
    18     8    48 1   
    19     9    10 1   
    20     9    49 1   
    21    10    11 1   
    22    10    50 1   
    23    11    26 1   
    24    11    51 1   
    25    12    33 1   
    26    12    52 1   
    27    12    53 1   
    28    13    14 ar  
    29    13    18 ar  
    30    14    15 ar  
    31    14    54 1   
    32    15    16 ar  
    33    15    55 1   
    34    16    17 ar  
    35    16    42 1   
    36    17    18 ar  
    37    17    56 1   
    38    18    57 1   
    39    19    20 1   
    40    19    58 1   
    41    19    59 1   
    42    20    21 ar  
    43    20    25 ar  
    44    21    22 ar  
    45    21    60 1   
    46    22    23 ar  
    47    22    61 1   
    48    23    24 ar  
    49    23    62 1   
    50    24    25 ar  
    51    24    63 1   
    52    25    64 1   
    53    26    27 1   
    54    26    65 1   
    55    26    66 1   
    56    27    28 ar  
    57    27    32 ar  
    58    28    29 ar  
    59    28    67 1   
    60    29    30 ar  
    61    29    68 1   
    62    30    31 ar  
    63    30    69 1   
    64    31    32 ar  
    65    31    70 1   
    66    32    71 1   
    67    33    34 ar  
    68    33    38 ar  
    69    34    35 ar  
    70    34    72 1   
    71    35    36 ar  
    72    35    73 1   
    73    36    37 ar  
    74    36    41 1   
    75    37    38 ar  
    76    37    74 1   
    77    38    75 1   
    78    39    40 3   
    79    41    43 1   
    80    41    76 1   
    81    41    77 1   
    82    42    44 1   
    83    42    78 1   
    84    42    79 1   
    85    43    80 1   
    86    44    81 1   
@<TRIPOS>SUBSTRUCTURE
     1 Q82         1 TEMP              0 ****  ****    0 ROOT
