@<TRIPOS>MOLECULE
Q83
   39    40     1     0     0
SMALL
No Charge or Current Charge


@<TRIPOS>ATOM
      1 C1         193.5890   192.7930   251.8750 c          1 Q83       0.707000
      2 C2         193.7630   191.3720   251.3080 c3         1 Q83      -0.202400
      3 C3         195.1980   190.8570   251.5900 c3         1 Q83      -0.058400
      4 C4         195.4440   189.3810   251.1900 c3         1 Q83      -0.075400
      5 C5         195.3500   189.1030   249.6720 c3         1 Q83      -0.067400
      6 C6         195.6870   187.6340   249.3110 c3         1 Q83      -0.149400
      7 C7         195.5700   187.2830   247.8160 c          1 Q83       0.608100
      8 N1         195.2880   185.9490   247.4150 n          1 Q83      -0.236400
      9 C8         194.8350   185.7170   246.0160 c5         1 Q83       0.096000
     10 C10        195.0110   183.7000   247.3290 ca         1 Q83      -0.099300
     11 C11        195.0510   182.3700   247.7660 ca         1 Q83      -0.085000
     12 C12        195.6170   182.0770   249.0200 ca         1 Q83      -0.082000
     13 C13        196.1430   183.1150   249.8330 ca         1 Q83      -0.140200
     14 C14        196.0880   184.4550   249.3680 ca         1 Q83      -0.093000
     15 C15        195.5190   184.7230   248.1060 ca         1 Q83      -0.006000
     16 C9         194.4440   184.1860   246.0100 c5         1 Q83      -0.049100
     17 O1         193.2140   192.9120   253.0320 o          1 Q83      -0.744000
     18 O2         193.8800   193.7400   251.1590 o          1 Q83      -0.744000
     19 O3         195.6630   188.1700   246.9720 o          1 Q83      -0.570100
     20 O4         196.7870   181.6120   251.5300 o          1 Q83      -0.396000
     21 O5         197.1910   183.7320   251.8510 o          1 Q83      -0.396000
     22 H2         193.6490   191.3850   250.2180 hc         1 Q83       0.017700
     23 H1         193.0860   190.6740   251.8160 hc         1 Q83       0.017700
     24 H4         195.4040   190.9580   252.6630 hc         1 Q83       0.043700
     25 H3         195.9240   191.4980   251.0740 hc         1 Q83       0.043700
     26 H6         194.7300   188.7400   251.7220 hc         1 Q83       0.020200
     27 H5         196.4430   189.0930   251.5390 hc         1 Q83       0.020200
     28 H8         196.0340   189.7760   249.1400 hc         1 Q83       0.059200
     29 H7         194.3360   189.3280   249.3190 hc         1 Q83       0.059200
     30 H9         195.0650   186.9400   249.8870 hc         1 Q83       0.059200
     31 H10        196.7120   187.4020   249.6200 hc         1 Q83       0.059200
     32 H11        195.6510   185.9200   245.3090 h1         1 Q83       0.067700
     33 H12        193.9810   186.3550   245.7500 h1         1 Q83       0.067700
     34 H15        194.6500   181.5720   247.1440 ha         1 Q83       0.126000
     35 H16        195.6450   181.0400   249.3530 ha         1 Q83       0.150000
     36 H17        196.5100   185.2440   249.9790 ha         1 Q83       0.167000
     37 H13        193.3560   184.0550   245.9720 hc         1 Q83       0.065200
     38 H14        194.8680   183.6620   245.1470 hc         1 Q83       0.065200
     39 N2         196.7520   182.7970   251.1690 no         1 Q83       0.670200
@<TRIPOS>BOND
     1     1     2 1   
     2     1    17 1   
     3     1    18 1   
     4     2     3 1   
     5     2    22 1   
     6     2    23 1   
     7     3     4 1   
     8     3    24 1   
     9     3    25 1   
    10     4     5 1   
    11     4    26 1   
    12     4    27 1   
    13     5     6 1   
    14     5    28 1   
    15     5    29 1   
    16     6     7 1   
    17     6    30 1   
    18     6    31 1   
    19     7     8 1   
    20     7    19 2   
    21     8     9 1   
    22     8    15 1   
    23     9    16 1   
    24     9    32 1   
    25     9    33 1   
    26    10    11 ar  
    27    10    15 ar  
    28    10    16 1   
    29    11    12 ar  
    30    11    34 1   
    31    12    13 ar  
    32    12    35 1   
    33    13    14 ar  
    34    13    39 1   
    35    14    15 ar  
    36    14    36 1   
    37    16    37 1   
    38    16    38 1   
    39    20    39 1   
    40    21    39 1   
@<TRIPOS>SUBSTRUCTURE
     1 Q83         1 TEMP              0 ****  ****    0 ROOT
