@<TRIPOS>MOLECULE
Q83
   39    40     1     0     0
SMALL
abcg2


@<TRIPOS>ATOM
      1 C1         193.6780   192.7170   251.9740 c          1 Q83       0.707000
      2 C2         193.9260   191.3200   251.3690 c3         1 Q83      -0.202400
      3 C3         195.3450   190.7830   251.5420 c3         1 Q83      -0.058400
      4 C4         195.5160   189.3210   251.1230 c3         1 Q83      -0.075400
      5 C5         195.3040   189.0630   249.6320 c3         1 Q83      -0.067400
      6 C6         195.5330   187.5990   249.2810 c3         1 Q83      -0.149400
      7 C7         195.3260   187.2880   247.8170 c          1 Q83       0.608100
      8 N1         195.2610   185.9780   247.4190 n          1 Q83      -0.236400
      9 C8         194.9670   185.6840   245.9950 c5         1 Q83       0.096000
     10 C10        195.1030   183.6900   247.3010 ca         1 Q83      -0.099300
     11 C11        195.2060   182.3880   247.7540 ca         1 Q83      -0.085000
     12 C12        195.6570   182.1420   249.0470 ca         1 Q83      -0.082000
     13 C13        195.9950   183.2270   249.8420 ca         1 Q83      -0.140200
     14 C14        195.9060   184.5520   249.4140 ca         1 Q83      -0.093000
     15 C15        195.4420   184.7760   248.1270 ca         1 Q83      -0.006000
     16 C9         194.6360   184.1840   245.9640 c5         1 Q83      -0.049100
     17 O1         194.2450   192.9910   253.0640 o          1 Q83      -0.744000
     18 O2         192.8930   193.4790   251.3470 o          1 Q83      -0.744000
     19 O3         195.1980   188.1730   246.9750 o          1 Q83      -0.570100
     20 O4         196.5880   181.8170   251.5780 o          1 Q83      -0.396000
     21 O5         196.7600   183.9430   251.9050 o          1 Q83      -0.396000
     22 H2         193.6410   191.3460   250.3170 hc         1 Q83       0.017700
     23 H1         193.2250   190.6360   251.8650 hc         1 Q83       0.017700
     24 H4         195.6280   190.8890   252.5910 hc         1 Q83       0.043700
     25 H3         196.0420   191.4060   250.9700 hc         1 Q83       0.043700
     26 H6         194.8210   188.6990   251.7000 hc         1 Q83       0.020200
     27 H5         196.5240   188.9880   251.3960 hc         1 Q83       0.020200
     28 H8         195.9840   189.6910   249.0520 hc         1 Q83       0.059200
     29 H7         194.2920   189.3490   249.3380 hc         1 Q83       0.059200
     30 H9         194.8690   186.9650   249.8760 hc         1 Q83       0.059200
     31 H10        196.5550   187.3110   249.5480 hc         1 Q83       0.059200
     32 H11        195.8450   185.9220   245.3930 h1         1 Q83       0.067700
     33 H12        194.1450   186.3090   245.6610 h1         1 Q83       0.067700
     34 H15        194.9400   181.5620   247.1070 ha         1 Q83       0.126000
     35 H16        195.7470   181.1370   249.4280 ha         1 Q83       0.150000
     36 H17        196.2090   185.3330   250.0850 ha         1 Q83       0.167000
     37 H13        193.5620   184.0150   245.8560 hc         1 Q83       0.065200
     38 H14        195.1310   183.6710   245.1410 hc         1 Q83       0.065200
     39 N2         196.4800   182.9790   251.2000 no         1 Q83       0.670200
@<TRIPOS>BOND
     1     1     2 1   
     2     1    17 1   
     3     1    18 1   
     4     2     3 1   
     5     2    22 1   
     6     2    23 1   
     7     3     4 1   
     8     3    24 1   
     9     3    25 1   
    10     4     5 1   
    11     4    26 1   
    12     4    27 1   
    13     5     6 1   
    14     5    28 1   
    15     5    29 1   
    16     6     7 1   
    17     6    30 1   
    18     6    31 1   
    19     7     8 1   
    20     7    19 2   
    21     8     9 1   
    22     8    15 1   
    23     9    16 1   
    24     9    32 1   
    25     9    33 1   
    26    10    11 ar  
    27    10    15 ar  
    28    10    16 1   
    29    11    12 ar  
    30    11    34 1   
    31    12    13 ar  
    32    12    35 1   
    33    13    14 ar  
    34    13    39 1   
    35    14    15 ar  
    36    14    36 1   
    37    16    37 1   
    38    16    38 1   
    39    20    39 1   
    40    21    39 1   
@<TRIPOS>SUBSTRUCTURE
     1 Q83         1 TEMP              0 ****  ****    0 ROOT
