@<TRIPOS>MOLECULE
Q86
   29    30     1     0     0
SMALL
No Charge or Current Charge


@<TRIPOS>ATOM
      1 C            0.9780     0.6620    -0.1750 c          1 Q86       0.552100
      2 N            3.2800    -0.3900    -0.3980 na         1 Q86      -0.055700
      3 O            1.4390     1.5880     0.4820 o          1 Q86      -0.485100
      4 CA           1.8360    -0.5060    -0.6900 c3         1 Q86      -0.027400
      5 CAA         -5.0370     0.9500     0.2580 ca         1 Q86      -0.108500
      6 CAB         -5.5660    -0.2130    -0.3270 ca         1 Q86      -0.108000
      7 CAC         -4.7250    -1.3060    -0.5970 ca         1 Q86      -0.108500
      8 CAD         -3.3560    -1.2360    -0.2810 ca         1 Q86      -0.106500
      9 CAE         -2.8210    -0.0730     0.3070 ca         1 Q86      -0.088300
     10 CAF         -3.6690     1.0200     0.5740 ca         1 Q86      -0.106500
     11 CAG         -1.3390     0.0050     0.6440 c3         1 Q86      -0.019100
     12 CAH         -0.5150     0.6020    -0.5200 c3         1 Q86      -0.178400
     13 NAL          4.1990    -0.3830    -1.3970 nc         1 Q86      -0.538800
     14 CAM          5.3450    -0.2820    -0.7330 cd         1 Q86       0.525900
     15 NAN          5.1950    -0.2310     0.6450 nd         1 Q86      -0.695000
     16 CAO          3.8890    -0.3010     0.8340 cc         1 Q86       0.423400
     17 HA           1.4520    -1.4290    -0.2400 h1         1 Q86       0.086700
     18 HAA          1.6880    -0.5750    -1.7740 h1         1 Q86       0.086700
     19 HAB         -6.6240    -0.2670    -0.5710 ha         1 Q86       0.114000
     20 HAC         -5.1320    -2.2060    -1.0510 ha         1 Q86       0.113500
     21 HAD         -2.7120    -2.0860    -0.4960 ha         1 Q86       0.111000
     22 HAF         -3.2670     1.9250     1.0240 ha         1 Q86       0.111000
     23 HAG         -1.1900     0.6160     1.5450 hc         1 Q86       0.061700
     24 HAGA        -0.9550    -0.9940     0.8890 hc         1 Q86       0.061700
     25 HAH         -0.8800     1.6160    -0.7270 hc         1 Q86       0.068200
     26 HAHA        -0.6640    -0.0440    -1.3930 hc         1 Q86       0.068200
     27 HAM          6.3200    -0.2450    -1.2060 h5         1 Q86       0.064100
     28 HAO          3.3510    -0.2950     1.7740 h5         1 Q86       0.062100
     29 HAAA        -5.6870     1.7970     0.4660 ha         1 Q86       0.113500
@<TRIPOS>BOND
     1     1     3 2   
     2     1     4 1   
     3     1    12 1   
     4     2     4 1   
     5     2    13 1   
     6     2    16 1   
     7     4    17 1   
     8     4    18 1   
     9     5     6 ar  
    10     5    10 ar  
    11     5    29 1   
    12     6     7 ar  
    13     6    19 1   
    14     7     8 ar  
    15     7    20 1   
    16     8     9 ar  
    17     8    21 1   
    18     9    10 ar  
    19     9    11 1   
    20    10    22 1   
    21    11    12 1   
    22    11    23 1   
    23    11    24 1   
    24    12    25 1   
    25    12    26 1   
    26    13    14 2   
    27    14    15 1   
    28    14    27 1   
    29    15    16 2   
    30    16    28 1   
@<TRIPOS>SUBSTRUCTURE
     1 Q86         1 TEMP              0 ****  ****    0 ROOT
