@<TRIPOS>MOLECULE
Q86
   29    30     1     0     0
SMALL
abcg2


@<TRIPOS>ATOM
      1 C            0.9690    -0.0300     0.1440 c          1 Q86       0.552100
      2 N            3.2970    -0.2830    -0.5720 na         1 Q86      -0.055700
      3 O            1.3670     0.4130     1.1920 o          1 Q86      -0.485100
      4 CA           1.9330    -0.5820    -0.8940 c3         1 Q86      -0.027400
      5 CAA         -4.8400     1.1140    -0.5490 ca         1 Q86      -0.108500
      6 CAB         -5.4950    -0.1110    -0.5460 ca         1 Q86      -0.108000
      7 CAC         -4.8400    -1.2350    -0.0580 ca         1 Q86      -0.108500
      8 CAD         -3.5410    -1.1330     0.4210 ca         1 Q86      -0.106500
      9 CAE         -2.8740     0.0910     0.4220 ca         1 Q86      -0.088300
     10 CAF         -3.5410     1.2120    -0.0690 ca         1 Q86      -0.106500
     11 CAG         -1.4510     0.1880     0.8970 c3         1 Q86      -0.019100
     12 CAH         -0.4790    -0.1030    -0.2430 c3         1 Q86      -0.178400
     13 NAL          3.8370     0.9000    -0.8800 nc         1 Q86      -0.538800
     14 CAM          5.0210     0.8340    -0.3210 cd         1 Q86       0.525900
     15 NAN          5.2660    -0.3190     0.3390 nd         1 Q86      -0.695000
     16 CAO          4.1520    -0.9930     0.1670 cc         1 Q86       0.423400
     17 HA           1.8040    -1.6650    -0.9450 h1         1 Q86       0.086700
     18 HAA          1.6990    -0.1900    -1.8840 h1         1 Q86       0.086700
     19 HAB         -6.5070    -0.1900    -0.9200 ha         1 Q86       0.114000
     20 HAC         -5.3430    -2.1940    -0.0500 ha         1 Q86       0.113500
     21 HAD         -3.0390    -2.0150     0.8010 ha         1 Q86       0.111000
     22 HAF         -3.0390     2.1720    -0.0700 ha         1 Q86       0.111000
     23 HAG         -1.2590     1.1850     1.2980 hc         1 Q86       0.061700
     24 HAGA        -1.2810    -0.5220     1.7090 hc         1 Q86       0.061700
     25 HAH         -0.6280     0.6090    -1.0640 hc         1 Q86       0.068200
     26 HAHA        -0.6760    -1.0870    -0.6810 hc         1 Q86       0.068200
     27 HAM          5.7340     1.6410    -0.3960 h5         1 Q86       0.064100
     28 HAO          3.9290    -1.9810     0.5410 h5         1 Q86       0.062100
     29 HAAA        -5.3430     1.9970    -0.9220 ha         1 Q86       0.113500
@<TRIPOS>BOND
     1     1     3 2   
     2     1     4 1   
     3     1    12 1   
     4     2     4 1   
     5     2    13 1   
     6     2    16 1   
     7     4    17 1   
     8     4    18 1   
     9     5     6 ar  
    10     5    10 ar  
    11     5    29 1   
    12     6     7 ar  
    13     6    19 1   
    14     7     8 ar  
    15     7    20 1   
    16     8     9 ar  
    17     8    21 1   
    18     9    10 ar  
    19     9    11 1   
    20    10    22 1   
    21    11    12 1   
    22    11    23 1   
    23    11    24 1   
    24    12    25 1   
    25    12    26 1   
    26    13    14 2   
    27    14    15 1   
    28    14    27 1   
    29    15    16 2   
    30    16    28 1   
@<TRIPOS>SUBSTRUCTURE
     1 Q86         1 TEMP              0 ****  ****    0 ROOT
