@<TRIPOS>MOLECULE
Q88
   17    18     1     0     0
SMALL
No Charge or Current Charge


@<TRIPOS>ATOM
      1 N1          -2.4160     0.0300     0.0390 nb         1 Q88      -0.285000
      2 C2          -2.0900    -1.2840    -0.0030 ca         1 Q88       0.168900
      3 N3          -0.8420    -1.8100    -0.0130 nb         1 Q88      -0.214000
      4 C4           0.1680    -0.9210     0.0240 ca         1 Q88       0.125500
      5 C5          -0.0500     0.4390     0.0690 ca         1 Q88      -0.066600
      6 C6          -1.3880     0.8930     0.0780 ca         1 Q88       0.421900
      7 N6          -1.7160     2.2150     0.1180 nv         1 Q88      -1.048900
      8 N7           1.1420     1.1660     0.0950 nc         1 Q88      -0.617100
      9 C8           2.0220     0.1790     0.0670 cd         1 Q88       0.616700
     10 N8           3.3330     0.4080     0.0750 nv         1 Q88      -1.004200
     11 N9           1.5230    -1.1040     0.0220 na         1 Q88      -0.444300
     12 H2          -2.9170    -1.9920    -0.0340 h5         1 Q88       0.047100
     13 HN6         -2.6560     2.4880    -0.1570 hn         1 Q88       0.492500
     14 HN6A        -0.9710     2.8850    -0.0590 hn         1 Q88       0.492500
     15 HN8          3.6150     1.3620    -0.1190 hn         1 Q88       0.474500
     16 HN8A         3.9450    -0.3210    -0.2730 hn         1 Q88       0.474500
     17 HN9          2.0440    -1.9670     0.0130 hn         1 Q88       0.367000
@<TRIPOS>BOND
     1     1     2 ar  
     2     1     6 ar  
     3     2     3 ar  
     4     2    12 1   
     5     3     4 ar  
     6     4     5 ar  
     7     4    11 1   
     8     5     6 ar  
     9     5     8 1   
    10     6     7 1   
    11     7    13 1   
    12     7    14 1   
    13     8     9 2   
    14     9    10 1   
    15     9    11 1   
    16    10    15 1   
    17    10    16 1   
    18    11    17 1   
@<TRIPOS>SUBSTRUCTURE
     1 Q88         1 TEMP              0 ****  ****    0 ROOT
