@<TRIPOS>MOLECULE
Q88
   17    18     1     0     0
SMALL
abcg2


@<TRIPOS>ATOM
      1 N1          -2.3680    -0.0070     0.0240 nb         1 Q88      -0.285000
      2 C2          -2.0380    -1.2920    -0.0020 ca         1 Q88       0.168900
      3 N3          -0.8250    -1.8240    -0.0070 nb         1 Q88      -0.214000
      4 C4           0.1230    -0.8950     0.0210 ca         1 Q88       0.125500
      5 C5          -0.0670     0.4790     0.0510 ca         1 Q88      -0.066600
      6 C6          -1.3970     0.9150     0.0530 ca         1 Q88       0.421900
      7 N6          -1.7340     2.2180     0.1160 nv         1 Q88      -1.048900
      8 N7           1.1340     1.1480     0.0660 nc         1 Q88      -0.617100
      9 C8           2.0310     0.1950     0.0490 cd         1 Q88       0.616700
     10 N8           3.3720     0.3760     0.1160 nv         1 Q88      -1.004200
     11 N9           1.4800    -1.0580     0.0220 na         1 Q88      -0.444300
     12 H2          -2.8680    -1.9910    -0.0260 h5         1 Q88       0.047100
     13 HN6         -2.6860     2.4740    -0.0870 hn         1 Q88       0.492500
     14 HN6A        -1.0340     2.9110    -0.0860 hn         1 Q88       0.492500
     15 HN8          3.6870     1.3040    -0.1160 hn         1 Q88       0.474500
     16 HN8A         3.9570    -0.3500    -0.2670 hn         1 Q88       0.474500
     17 HN9          1.9770    -1.9360     0.0140 hn         1 Q88       0.367000
@<TRIPOS>BOND
     1     1     2 ar  
     2     1     6 ar  
     3     2     3 ar  
     4     2    12 1   
     5     3     4 ar  
     6     4     5 ar  
     7     4    11 1   
     8     5     6 ar  
     9     5     8 1   
    10     6     7 1   
    11     7    13 1   
    12     7    14 1   
    13     8     9 2   
    14     9    10 1   
    15     9    11 1   
    16    10    15 1   
    17    10    16 1   
    18    11    17 1   
@<TRIPOS>SUBSTRUCTURE
     1 Q88         1 TEMP              0 ****  ****    0 ROOT
