@<TRIPOS>MOLECULE
Q8A
   19    20     1     0     0
SMALL
bcc


@<TRIPOS>ATOM
      1 NAA          1.7330     2.0410    -0.1710 nv         1 Q8A      -0.819200
      2 CAB         -2.6670    -0.2330     0.0080 ca         1 Q8A      -0.241300
      3 CAC          1.9210    -1.6450    -0.0100 ca         1 Q8A      -0.069000
      4 CAD         -2.1750     1.0870    -0.0210 ca         1 Q8A       0.404200
      5 CAE          2.3180    -0.2980    -0.0500 ca         1 Q8A      -0.230000
      6 CAF         -1.7710    -1.2650     0.0160 ca         1 Q8A      -0.090000
      7 CAG          0.5990    -2.0040     0.0070 ca         1 Q8A      -0.172000
      8 NAH         -0.9020     1.3800    -0.0480 nb         1 Q8A      -0.671000
      9 CAI          1.3860     0.7220    -0.0750 ca         1 Q8A       0.131300
     10 CAJ         -0.3850    -0.9910    -0.0090 ca         1 Q8A      -0.103300
     11 CAK         -0.0030     0.3720    -0.0460 ca         1 Q8A       0.347600
     12 HNAA         2.6610     2.2890     0.1300 hn         1 Q8A       0.412300
     13 HNAB         1.0240     2.6990     0.1080 hn         1 Q8A       0.412300
     14 HAC          2.6870    -2.4100     0.0070 ha         1 Q8A       0.128000
     15 HAD         -2.8710     1.9200    -0.0210 h4         1 Q8A       0.017100
     16 HAE          3.3740    -0.0570    -0.0630 ha         1 Q8A       0.132000
     17 HAF         -2.1100    -2.2940     0.0430 ha         1 Q8A       0.136000
     18 HAG          0.2990    -3.0440     0.0360 ha         1 Q8A       0.134000
     19 HAB         -3.7330    -0.4090     0.0270 ha         1 Q8A       0.140000
@<TRIPOS>BOND
     1     1     9 1   
     2     1    12 1   
     3     1    13 1   
     4     2     4 ar  
     5     2     6 ar  
     6     2    19 1   
     7     3     5 ar  
     8     3     7 ar  
     9     3    14 1   
    10     4     8 ar  
    11     4    15 1   
    12     5     9 ar  
    13     5    16 1   
    14     6    10 ar  
    15     6    17 1   
    16     7    10 ar  
    17     7    18 1   
    18     8    11 ar  
    19     9    11 ar  
    20    10    11 ar  
@<TRIPOS>SUBSTRUCTURE
     1 Q8A         1 TEMP              0 ****  ****    0 ROOT
