@<TRIPOS>MOLECULE
Q8A
   19    20     1     0     0
SMALL
No Charge or Current Charge


@<TRIPOS>ATOM
      1 NAA          1.8380     2.0360    -0.1020 nv         1 Q8A      -1.068000
      2 CAB         -2.7140    -0.2620     0.0100 ca         1 Q8A      -0.158000
      3 CAC          1.9370    -1.6400    -0.0150 ca         1 Q8A      -0.051000
      4 CAD         -2.2770     1.0700    -0.0240 ca         1 Q8A       0.338900
      5 CAE          2.3350    -0.2960    -0.0500 ca         1 Q8A      -0.212000
      6 CAF         -1.7630    -1.2920     0.0190 ca         1 Q8A      -0.072000
      7 CAG          0.5740    -1.9650     0.0070 ca         1 Q8A      -0.154000
      8 NAH         -0.9680     1.4130    -0.0480 nb         1 Q8A      -0.671000
      9 CAI          1.3780     0.7320    -0.0660 ca         1 Q8A       0.335000
     10 CAJ         -0.3990    -0.9480    -0.0060 ca         1 Q8A      -0.038000
     11 CAK         -0.0220     0.4240    -0.0420 ca         1 Q8A       0.217000
     12 HNAA         2.8070     2.2340     0.1380 hn         1 Q8A       0.467500
     13 HNAB         1.1560     2.7800     0.0400 hn         1 Q8A       0.467500
     14 HAC          2.6850    -2.4310    -0.0040 ha         1 Q8A       0.110000
     15 HAD         -2.9940     1.8900    -0.0310 h4         1 Q8A       0.017100
     16 HAE          3.3940    -0.0550    -0.0690 ha         1 Q8A       0.114000
     17 HAF         -2.0790    -2.3330     0.0470 ha         1 Q8A       0.118000
     18 HAG          0.2740    -3.0110     0.0340 ha         1 Q8A       0.116000
     19 HAB         -3.7770    -0.4850     0.0280 ha         1 Q8A       0.122000
@<TRIPOS>BOND
     1     1     9 1   
     2     1    12 1   
     3     1    13 1   
     4     2     4 ar  
     5     2     6 ar  
     6     2    19 1   
     7     3     5 ar  
     8     3     7 ar  
     9     3    14 1   
    10     4     8 ar  
    11     4    15 1   
    12     5     9 ar  
    13     5    16 1   
    14     6    10 ar  
    15     6    17 1   
    16     7    10 ar  
    17     7    18 1   
    18     8    11 ar  
    19     9    11 ar  
    20    10    11 ar  
@<TRIPOS>SUBSTRUCTURE
     1 Q8A         1 TEMP              0 ****  ****    0 ROOT
