@<TRIPOS>MOLECULE
Q8B
   73    77     1     0     0
SMALL
No Charge or Current Charge


@<TRIPOS>ATOM
      1 O3          34.4540    35.1300    19.7470 os         1 Q8B      -0.294100
      2 C4          36.5830    28.5670    20.7690 c3         1 Q8B       0.105000
      3 C5          34.0800    28.1850    20.5660 c3         1 Q8B       0.097300
      4 O4          37.0010    35.9380    20.6520 o          1 Q8B      -0.560100
      5 C6          34.9980    30.5030    20.9500 c          1 Q8B       0.565100
      6 N1          37.2400    28.7160    16.9200 n3         1 Q8B      -0.734600
      7 C7          33.6590    31.1180    20.4630 c3         1 Q8B       0.080600
      8 C8          34.6420    32.8550    18.9800 ca         1 Q8B       0.143100
      9 N2          35.2140    29.1290    20.7030 n          1 Q8B      -0.431800
     10 C9          35.1410    31.9050    18.0530 ca         1 Q8B      -0.213000
     11 C10         35.9510    32.3110    16.9810 ca         1 Q8B       0.313000
     12 C11         36.2910    33.6720    16.8570 ca         1 Q8B      -0.120000
     13 C12         35.8030    34.6250    17.7670 ca         1 Q8B      -0.142000
     14 N3          36.6560    38.1260    20.0690 ns         1 Q8B      -0.507900
     15 C13         34.9680    34.2230    18.8320 ca         1 Q8B       0.092100
     16 C14         34.8010    36.5360    19.7540 c3         1 Q8B       0.076600
     17 C15         36.2570    36.8070    20.2110 c          1 Q8B       0.565100
     18 N4          36.3920    31.3440    16.0720 nu         1 Q8B      -0.942900
     19 C26         36.4510    28.1900    15.7810 c3         1 Q8B       0.233000
     20 C25         36.8450    28.7530    14.4340 cc         1 Q8B      -0.111400
     21 C27         36.8890    30.1340    14.0140 ca         1 Q8B      -0.244800
     22 C23         37.1940    30.1750    12.6750 ca         1 Q8B       0.145500
     23 N7          37.3920    28.8890    12.2130 na         1 Q8B      -0.314400
     24 C24         37.1690    28.0150    13.3030 cd         1 Q8B      -0.175100
     25 N6          37.2560    31.3400    12.0050 nb         1 Q8B      -0.233000
     26 C22         36.9990    32.4520    12.7290 ca         1 Q8B       0.178900
     27 N5          36.7040    32.5060    14.0480 nb         1 Q8B      -0.292000
     28 C21         36.6650    31.3340    14.7100 ca         1 Q8B       0.441900
     29 O2          33.8240    32.4910    20.0410 os         1 Q8B      -0.293100
     30 O1          35.8920    31.2000    21.4200 o          1 Q8B      -0.552100
     31 C3          37.3690    28.8240    19.4650 c3         1 Q8B      -0.102400
     32 C2          36.7170    28.2030    18.2090 c3         1 Q8B       0.164800
     33 C16         38.0140    38.4960    20.4830 c5         1 Q8B       0.101700
     34 C20         37.9230    38.8700    21.9820 c5         1 Q8B      -0.094900
     35 C19         39.1980    39.7480    22.1570 c5         1 Q8B      -0.077900
     36 C18         39.4640    40.3680    20.7420 c5         1 Q8B      -0.077900
     37 C17         38.2660    39.8920    19.8730 c5         1 Q8B      -0.094900
     38 H1          36.5350    27.4850    20.9500 h1         1 Q8B       0.053200
     39 H2          37.1250    29.0100    21.6160 h1         1 Q8B       0.053200
     40 H3          33.2980    28.4310    21.2950 h1         1 Q8B       0.036033
     41 H4          33.6630    28.2510    19.5530 h1         1 Q8B       0.036033
     42 H5          34.4090    27.1540    20.7440 h1         1 Q8B       0.036033
     43 H7          32.9490    31.0540    21.2960 h1         1 Q8B       0.067700
     44 H8          33.2570    30.5150    19.6410 h1         1 Q8B       0.067700
     45 H9          34.8850    30.8550    18.1360 ha         1 Q8B       0.117000
     46 H10         36.9480    34.0040    16.0620 ha         1 Q8B       0.148000
     47 H11         36.0850    35.6630    17.6250 ha         1 Q8B       0.116000
     48 H12         35.9830    38.7850    19.6930 hn         1 Q8B       0.303500
     49 H13         34.6520    36.9840    18.7640 h1         1 Q8B       0.063200
     50 H14         34.1490    37.0750    20.4510 h1         1 Q8B       0.063200
     51 H15         36.5330    30.4060    16.4750 hn         1 Q8B       0.545000
     52 H16         39.2750    28.9740    17.5450 h1         1 Q8B       0.039700
     53 H17         38.9340    27.4170    16.7530 h1         1 Q8B       0.039700
     54 H18         39.0560    28.9120    15.7970 h1         1 Q8B       0.039700
     55 H19         35.3860    28.4130    15.9340 h1         1 Q8B       0.039200
     56 H20         36.5430    27.0950    15.7400 h1         1 Q8B       0.039200
     57 H21         37.6360    28.6290    11.2630 hn         1 Q8B       0.362000
     58 H22         37.2340    26.9340    13.1940 h4         1 Q8B       0.215000
     59 H23         37.0370    33.4010    12.1980 h5         1 Q8B       0.042100
     60 H24         38.3830    28.4280    19.5860 hc         1 Q8B       0.065700
     61 H25         37.4630    29.9070    19.3200 hc         1 Q8B       0.065700
     62 H26         35.6410    28.4130    18.2430 h1         1 Q8B       0.030200
     63 H27         36.8300    27.1120    18.2590 h1         1 Q8B       0.030200
     64 H28         38.8000    37.7620    20.2470 h1         1 Q8B       0.087700
     65 H29         37.0180    39.4470    22.2110 hc         1 Q8B       0.046700
     66 H30         37.9250    37.9920    22.6370 hc         1 Q8B       0.046700
     67 H31         40.0530    39.1420    22.4790 hc         1 Q8B       0.044200
     68 H32         39.0510    40.5180    22.9230 hc         1 Q8B       0.044200
     69 H33         40.4130    40.0020    20.3330 hc         1 Q8B       0.044200
     70 H34         39.5330    41.4610    20.7760 hc         1 Q8B       0.044200
     71 H35         37.4060    40.5640    19.9870 hc         1 Q8B       0.046700
     72 H36         38.5130    39.8490    18.8060 hc         1 Q8B       0.046700
     73 C1          38.7000    28.4900    16.7460 c3         1 Q8B       0.144100
@<TRIPOS>BOND
     1     1    15 1   
     2     1    16 1   
     3     2     9 1   
     4     2    31 1   
     5     2    38 1   
     6     2    39 1   
     7     3     9 1   
     8     3    40 1   
     9     3    41 1   
    10     3    42 1   
    11     4    17 2   
    12     5     7 1   
    13     5     9 1   
    14     5    30 2   
    15     6    19 1   
    16     6    32 1   
    17     6    73 1   
    18     7    29 1   
    19     7    43 1   
    20     7    44 1   
    21     8    10 ar  
    22     8    15 ar  
    23     8    29 1   
    24    10    11 ar  
    25    10    45 1   
    26    11    12 ar  
    27    11    18 1   
    28    12    13 ar  
    29    12    46 1   
    30    13    15 ar  
    31    13    47 1   
    32    14    17 1   
    33    14    33 1   
    34    14    48 1   
    35    16    17 1   
    36    16    49 1   
    37    16    50 1   
    38    18    28 1   
    39    18    51 1   
    40    19    20 1   
    41    19    55 1   
    42    19    56 1   
    43    20    21 1   
    44    20    24 2   
    45    21    22 ar  
    46    21    28 ar  
    47    22    23 1   
    48    22    25 ar  
    49    23    24 1   
    50    23    57 1   
    51    24    58 1   
    52    25    26 ar  
    53    26    27 ar  
    54    26    59 1   
    55    27    28 ar  
    56    31    32 1   
    57    31    60 1   
    58    31    61 1   
    59    32    62 1   
    60    32    63 1   
    61    33    34 1   
    62    33    37 1   
    63    33    64 1   
    64    34    35 1   
    65    34    65 1   
    66    34    66 1   
    67    35    36 1   
    68    35    67 1   
    69    35    68 1   
    70    36    37 1   
    71    36    69 1   
    72    36    70 1   
    73    37    71 1   
    74    37    72 1   
    75    52    73 1   
    76    53    73 1   
    77    54    73 1   
@<TRIPOS>SUBSTRUCTURE
     1 Q8B         1 TEMP              0 ****  ****    0 ROOT
