@<TRIPOS>MOLECULE
Q8B
   73    77     1     0     0
SMALL
abcg2


@<TRIPOS>ATOM
      1 O3          34.5170    34.8800    20.3190 os         1 Q8B      -0.294100
      2 C4          36.2810    28.1410    20.5490 c3         1 Q8B       0.105000
      3 C5          33.8080    28.0890    20.3390 c3         1 Q8B       0.097300
      4 O4          36.9360    35.8080    21.2190 o          1 Q8B      -0.560100
      5 C6          35.0440    30.1800    20.8430 c          1 Q8B       0.565100
      6 N1          37.2090    28.7160    16.8810 n3         1 Q8B      -0.734600
      7 C7          33.7710    30.9920    20.5790 c3         1 Q8B       0.080600
      8 C8          34.7840    32.7550    19.3870 ca         1 Q8B       0.143100
      9 N2          35.0160    28.8610    20.5340 n          1 Q8B      -0.431800
     10 C9          35.2450    31.9250    18.3810 ca         1 Q8B      -0.213000
     11 C10         35.9680    32.4270    17.2890 ca         1 Q8B       0.313000
     12 C11         36.2020    33.7910    17.2130 ca         1 Q8B      -0.120000
     13 C12         35.7250    34.6290    18.2200 ca         1 Q8B      -0.142000
     14 N3          36.6020    37.7980    20.1850 ns         1 Q8B      -0.507900
     15 C13         35.0280    34.1370    19.3060 ca         1 Q8B       0.092100
     16 C14         34.7590    36.2520    20.3110 c3         1 Q8B       0.076600
     17 C15         36.2190    36.5830    20.6160 c          1 Q8B       0.565100
     18 N4          36.4180    31.4770    16.3700 nu         1 Q8B      -0.942900
     19 C26         36.5870    28.2640    15.6410 c3         1 Q8B       0.233000
     20 C25         37.0180    29.0560    14.4510 cc         1 Q8B      -0.111400
     21 C27         37.0270    30.4810    14.2850 ca         1 Q8B      -0.244800
     22 C23         37.4220    30.7450    12.9680 ca         1 Q8B       0.145500
     23 N7          37.6640    29.5580    12.3660 na         1 Q8B      -0.314400
     24 C24         37.4240    28.5430    13.2540 cd         1 Q8B      -0.175100
     25 N6          37.5190    31.9510    12.4060 nb         1 Q8B      -0.233000
     26 C22         37.1860    32.9200    13.2310 ca         1 Q8B       0.178900
     27 N5          36.8170    32.8280    14.5070 nb         1 Q8B      -0.292000
     28 C21         36.7500    31.6240    15.0670 ca         1 Q8B       0.441900
     29 O2          34.0710    32.3530    20.4580 os         1 Q8B      -0.293100
     30 O1          36.0410    30.7380    21.2520 o          1 Q8B      -0.552100
     31 C3          37.1720    28.5090    19.3650 c3         1 Q8B      -0.102400
     32 C2          36.6010    28.0550    18.0280 c3         1 Q8B       0.164800
     33 C16         37.8810    38.4000    20.4690 c5         1 Q8B       0.101700
     34 C20         37.8720    39.4400    21.5890 c5         1 Q8B      -0.094900
     35 C19         39.2230    40.1290    21.4190 c5         1 Q8B      -0.077900
     36 C18         39.4810    40.1440    19.8940 c5         1 Q8B      -0.077900
     37 C17         38.4580    39.1720    19.2790 c5         1 Q8B      -0.094900
     38 H1          36.0550    27.0730    20.5390 h1         1 Q8B       0.053200
     39 H2          36.8130    28.3380    21.4790 h1         1 Q8B       0.053200
     40 H3          32.9170    28.7070    20.3810 h1         1 Q8B       0.036033
     41 H4          33.8090    27.5790    19.3750 h1         1 Q8B       0.036033
     42 H5          33.7090    27.3320    21.1190 h1         1 Q8B       0.036033
     43 H7          33.0890    30.9030    21.4270 h1         1 Q8B       0.067700
     44 H8          33.2330    30.6330    19.6950 h1         1 Q8B       0.067700
     45 H9          35.0550    30.8590    18.4090 ha         1 Q8B       0.117000
     46 H10         36.7450    34.2130    16.3840 ha         1 Q8B       0.148000
     47 H11         35.9340    35.6860    18.1220 ha         1 Q8B       0.116000
     48 H12         35.9190    38.3720    19.7150 hn         1 Q8B       0.303500
     49 H13         34.4250    36.7250    19.3790 h1         1 Q8B       0.063200
     50 H14         34.1470    36.6740    21.1120 h1         1 Q8B       0.063200
     51 H15         36.5860    30.5320    16.7370 hn         1 Q8B       0.545000
     52 H16         39.1080    29.0220    17.7170 h1         1 Q8B       0.039700
     53 H17         38.9660    27.5130    16.7960 h1         1 Q8B       0.039700
     54 H18         39.0500    29.0720    15.9620 h1         1 Q8B       0.039700
     55 H19         35.5030    28.3530    15.7710 h1         1 Q8B       0.039200
     56 H20         36.7820    27.1960    15.4560 h1         1 Q8B       0.039200
     57 H21         37.9520    29.4380    11.4110 hn         1 Q8B       0.362000
     58 H22         37.5590    27.5160    12.9570 h4         1 Q8B       0.215000
     59 H23         37.2230    33.9280    12.8300 h5         1 Q8B       0.042100
     60 H24         38.1510    28.0550    19.5370 hc         1 Q8B       0.065700
     61 H25         37.3270    29.5900    19.3600 hc         1 Q8B       0.065700
     62 H26         35.5300    28.2810    17.9880 h1         1 Q8B       0.030200
     63 H27         36.6870    26.9580    17.9480 h1         1 Q8B       0.030200
     64 H28         38.5620    37.5920    20.7430 h1         1 Q8B       0.087700
     65 H29         37.0540    40.1490    21.4220 hc         1 Q8B       0.046700
     66 H30         37.7270    38.9990    22.5750 hc         1 Q8B       0.046700
     67 H31         39.9970    39.5480    21.9250 hc         1 Q8B       0.044200
     68 H32         39.2450    41.1260    21.8580 hc         1 Q8B       0.044200
     69 H33         40.5030    39.8400    19.6690 hc         1 Q8B       0.044200
     70 H34         39.3600    41.1460    19.4820 hc         1 Q8B       0.044200
     71 H35         37.6540    39.7290    18.7870 hc         1 Q8B       0.046700
     72 H36         38.8890    38.5110    18.5270 hc         1 Q8B       0.046700
     73 C1          38.6520    28.5660    16.8400 c3         1 Q8B       0.144100
@<TRIPOS>BOND
     1     1    15 1   
     2     1    16 1   
     3     2     9 1   
     4     2    31 1   
     5     2    38 1   
     6     2    39 1   
     7     3     9 1   
     8     3    40 1   
     9     3    41 1   
    10     3    42 1   
    11     4    17 2   
    12     5     7 1   
    13     5     9 1   
    14     5    30 2   
    15     6    19 1   
    16     6    32 1   
    17     6    73 1   
    18     7    29 1   
    19     7    43 1   
    20     7    44 1   
    21     8    10 ar  
    22     8    15 ar  
    23     8    29 1   
    24    10    11 ar  
    25    10    45 1   
    26    11    12 ar  
    27    11    18 1   
    28    12    13 ar  
    29    12    46 1   
    30    13    15 ar  
    31    13    47 1   
    32    14    17 1   
    33    14    33 1   
    34    14    48 1   
    35    16    17 1   
    36    16    49 1   
    37    16    50 1   
    38    18    28 1   
    39    18    51 1   
    40    19    20 1   
    41    19    55 1   
    42    19    56 1   
    43    20    21 1   
    44    20    24 2   
    45    21    22 ar  
    46    21    28 ar  
    47    22    23 1   
    48    22    25 ar  
    49    23    24 1   
    50    23    57 1   
    51    24    58 1   
    52    25    26 ar  
    53    26    27 ar  
    54    26    59 1   
    55    27    28 ar  
    56    31    32 1   
    57    31    60 1   
    58    31    61 1   
    59    32    62 1   
    60    32    63 1   
    61    33    34 1   
    62    33    37 1   
    63    33    64 1   
    64    34    35 1   
    65    34    65 1   
    66    34    66 1   
    67    35    36 1   
    68    35    67 1   
    69    35    68 1   
    70    36    37 1   
    71    36    69 1   
    72    36    70 1   
    73    37    71 1   
    74    37    72 1   
    75    52    73 1   
    76    53    73 1   
    77    54    73 1   
@<TRIPOS>SUBSTRUCTURE
     1 Q8B         1 TEMP              0 ****  ****    0 ROOT
