@<TRIPOS>MOLECULE
Q8C
   45    48     1     0     0
SMALL
No Charge or Current Charge


@<TRIPOS>ATOM
      1 N1         -30.2900     0.0930    13.0430 nc         1 Q8C      -0.557100
      2 C7         -31.7130     1.5850    14.0460 ca         1 Q8C       0.141500
      3 C8         -31.4250     3.8550    14.0460 ca         1 Q8C       0.173900
      4 N2         -32.1660     2.7930    14.4350 nb         1 Q8C      -0.210000
      5 C9         -29.8640     2.6090    12.9170 ca         1 Q8C       0.434900
      6 O1         -35.4080     0.6130    13.5820 oh         1 Q8C      -0.679000
      7 C1         -34.6350    -0.4770    14.1070 c5         1 Q8C       0.139300
      8 C5         -31.3090    -0.5350    13.6570 cd         1 Q8C       0.417700
      9 C6         -30.5710     1.4350    13.2960 ca         1 Q8C      -0.078600
     10 N3         -30.2910     3.8220    13.3100 nb         1 Q8C      -0.301000
     11 C4         -33.4270    -0.0420    15.0000 c5         1 Q8C       0.319300
     12 O3         -33.1420    -1.1810    15.8450 os         1 Q8C      -0.450000
     13 C2         -34.3210    -2.0280    15.9210 c5         1 Q8C       0.133300
     14 N4         -28.6910     2.6310    12.1700 nu         1 Q8C      -0.911100
     15 N          -32.2140     0.3340    14.2870 na         1 Q8C      -0.296300
     16 C          -35.4630    -1.2660    15.1570 c5         1 Q8C       0.111300
     17 O          -36.1880    -0.3500    16.0060 oh         1 Q8C      -0.693000
     18 C10        -28.4010     1.7690    11.0110 c3         1 Q8C       0.276100
     19 C11        -29.3510     2.0890     9.8610 ca         1 Q8C      -0.104300
     20 C12        -30.4840     1.2850     9.6220 ca         1 Q8C      -0.098500
     21 C13        -31.3590     1.5850     8.5640 ca         1 Q8C      -0.109500
     22 C14        -31.1080     2.6920     7.7360 ca         1 Q8C      -0.112000
     23 C15        -29.9810     3.4980     7.9670 ca         1 Q8C      -0.109500
     24 C16        -29.1060     3.1980     9.0250 ca         1 Q8C      -0.098500
     25 H1         -31.7760     4.8360    14.3600 h5         1 Q8C       0.047100
     26 H2         -36.0630     0.7960    14.3010 ho         1 Q8C       0.510000
     27 H3         -34.2930    -1.1280    13.2920 h1         1 Q8C       0.067700
     28 H4         -31.4590    -1.6080    13.6860 h5         1 Q8C       0.077800
     29 H5         -33.7160     0.8130    15.6260 h2         1 Q8C       0.125700
     30 H8         -34.5870    -2.1400    16.9810 h1         1 Q8C       0.073700
     31 H9         -28.2880     3.5650    12.1170 hn         1 Q8C       0.498000
     32 H10        -36.1560    -1.9680    14.6710 h1         1 Q8C       0.058700
     33 H11        -36.7380    -0.8880    16.6240 ho         1 Q8C       0.500000
     34 H12        -28.4780     0.7060    11.2780 h1         1 Q8C       0.070700
     35 H13        -27.3690     1.9340    10.6710 h1         1 Q8C       0.070700
     36 H14        -30.6880     0.4260    10.2580 ha         1 Q8C       0.113000
     37 H15        -32.2320     0.9600     8.3870 ha         1 Q8C       0.111000
     38 H16        -31.7860     2.9240     6.9170 ha         1 Q8C       0.111000
     39 H17        -29.7850     4.3550     7.3260 ha         1 Q8C       0.111000
     40 H18        -28.2360     3.8290     9.1970 ha         1 Q8C       0.113000
     41 H19        -33.4780    -4.4180    13.7470 ho         1 Q8C       0.512000
     42 C3         -33.9820    -3.4580    15.3930 c3         1 Q8C       0.146600
     43 O2         -33.6950    -3.4840    13.9800 oh         1 Q8C      -0.738000
     44 H6         -34.8370    -4.1120    15.6120 h1         1 Q8C       0.038700
     45 H7         -33.1260    -3.8420    15.9630 h1         1 Q8C       0.038700
@<TRIPOS>BOND
     1     1     8 2   
     2     1     9 1   
     3     2     4 ar  
     4     2     9 ar  
     5     2    15 1   
     6     3     4 ar  
     7     3    10 ar  
     8     3    25 1   
     9     5     9 ar  
    10     5    10 ar  
    11     5    14 1   
    12     6     7 1   
    13     6    26 1   
    14     7    11 1   
    15     7    16 1   
    16     7    27 1   
    17     8    15 1   
    18     8    28 1   
    19    11    12 1   
    20    11    15 1   
    21    11    29 1   
    22    12    13 1   
    23    13    16 1   
    24    13    30 1   
    25    13    42 1   
    26    14    18 1   
    27    14    31 1   
    28    16    17 1   
    29    16    32 1   
    30    17    33 1   
    31    18    19 1   
    32    18    34 1   
    33    18    35 1   
    34    19    20 ar  
    35    19    24 ar  
    36    20    21 ar  
    37    20    36 1   
    38    21    22 ar  
    39    21    37 1   
    40    22    23 ar  
    41    22    38 1   
    42    23    24 ar  
    43    23    39 1   
    44    24    40 1   
    45    41    43 1   
    46    42    43 1   
    47    42    44 1   
    48    42    45 1   
@<TRIPOS>SUBSTRUCTURE
     1 Q8C         1 TEMP              0 ****  ****    0 ROOT
