@<TRIPOS>MOLECULE
Q8C
   45    48     1     0     0
SMALL
abcg2


@<TRIPOS>ATOM
      1 N1         -30.6300     0.2680    12.6750 nc         1 Q8C      -0.557100
      2 C7         -31.5620     1.6990    14.1900 ca         1 Q8C       0.141500
      3 C8         -30.9130     3.7550    14.6760 ca         1 Q8C       0.173900
      4 N2         -31.7860     2.7830    14.9380 nb         1 Q8C      -0.210000
      5 C9         -29.7060     2.6490    13.0330 ca         1 Q8C       0.434900
      6 O1         -35.2970     1.0920    13.8330 oh         1 Q8C      -0.679000
      7 C1         -34.6660    -0.1160    14.1940 c5         1 Q8C       0.139300
      8 C5         -31.6440    -0.3040    13.2700 cd         1 Q8C       0.417700
      9 C6         -30.5560     1.5400    13.2300 ca         1 Q8C      -0.078600
     10 N3         -29.9200     3.7490    13.7870 nb         1 Q8C      -0.301000
     11 C4         -33.4100     0.1970    15.0100 c5         1 Q8C       0.319300
     12 O3         -33.1460    -0.9570    15.7850 os         1 Q8C      -0.450000
     13 C2         -34.2990    -1.8350    15.8000 c5         1 Q8C       0.133300
     14 N4         -28.6820     2.7010    12.1580 nu         1 Q8C      -0.911100
     15 N          -32.2550     0.5110    14.1980 na         1 Q8C      -0.296300
     16 C          -35.4370    -1.0460    15.1350 c5         1 Q8C       0.111300
     17 O          -36.1410    -0.2440    16.0750 oh         1 Q8C      -0.693000
     18 C10        -28.4630     1.7600    11.0750 c3         1 Q8C       0.276100
     19 C11        -29.4730     1.8440     9.9460 ca         1 Q8C      -0.104300
     20 C12        -29.6340     0.7500     9.0970 ca         1 Q8C      -0.098500
     21 C13        -30.5330     0.7980     8.0390 ca         1 Q8C      -0.109500
     22 C14        -31.2920     1.9450     7.8190 ca         1 Q8C      -0.112000
     23 C15        -31.1390     3.0390     8.6640 ca         1 Q8C      -0.109500
     24 C16        -30.2340     2.9880     9.7210 ca         1 Q8C      -0.098500
     25 H1         -31.0250     4.6680    15.2520 h5         1 Q8C       0.047100
     26 H2         -35.9230     0.9130    13.1210 ho         1 Q8C       0.510000
     27 H3         -34.3840    -0.6920    13.3120 h1         1 Q8C       0.067700
     28 H4         -31.9970    -1.3100    13.0990 h5         1 Q8C       0.077800
     29 H5         -33.5830     1.0680    15.6440 h2         1 Q8C       0.125700
     30 H8         -34.5540    -2.0300    16.8440 h1         1 Q8C       0.073700
     31 H9         -28.2310     3.6020    12.0950 hn         1 Q8C       0.498000
     32 H10        -36.1220    -1.7020    14.5930 h1         1 Q8C       0.058700
     33 H11        -36.6020    -0.8320    16.6860 ho         1 Q8C       0.500000
     34 H12        -28.4570     0.7470    11.4720 h1         1 Q8C       0.070700
     35 H13        -27.4630     1.9600    10.6870 h1         1 Q8C       0.070700
     36 H14        -29.0560    -0.1510     9.2730 ha         1 Q8C       0.113000
     37 H15        -30.6500    -0.0620     7.3910 ha         1 Q8C       0.111000
     38 H16        -31.9990     1.9830     7.0000 ha         1 Q8C       0.111000
     39 H17        -31.7270     3.9350     8.5040 ha         1 Q8C       0.111000
     40 H18        -30.1290     3.8430    10.3760 ha         1 Q8C       0.113000
     41 H19        -33.4130    -3.8270    13.3980 ho         1 Q8C       0.512000
     42 C3         -33.9580    -3.1640    15.1590 c3         1 Q8C       0.146600
     43 O2         -33.7100    -2.9860    13.7650 oh         1 Q8C      -0.738000
     44 H6         -34.7990    -3.8480    15.3220 h1         1 Q8C       0.038700
     45 H7         -33.0760    -3.5770    15.6590 h1         1 Q8C       0.038700
@<TRIPOS>BOND
     1     1     8 2   
     2     1     9 1   
     3     2     4 ar  
     4     2     9 ar  
     5     2    15 1   
     6     3     4 ar  
     7     3    10 ar  
     8     3    25 1   
     9     5     9 ar  
    10     5    10 ar  
    11     5    14 1   
    12     6     7 1   
    13     6    26 1   
    14     7    11 1   
    15     7    16 1   
    16     7    27 1   
    17     8    15 1   
    18     8    28 1   
    19    11    12 1   
    20    11    15 1   
    21    11    29 1   
    22    12    13 1   
    23    13    16 1   
    24    13    30 1   
    25    13    42 1   
    26    14    18 1   
    27    14    31 1   
    28    16    17 1   
    29    16    32 1   
    30    17    33 1   
    31    18    19 1   
    32    18    34 1   
    33    18    35 1   
    34    19    20 ar  
    35    19    24 ar  
    36    20    21 ar  
    37    20    36 1   
    38    21    22 ar  
    39    21    37 1   
    40    22    23 ar  
    41    22    38 1   
    42    23    24 ar  
    43    23    39 1   
    44    24    40 1   
    45    41    43 1   
    46    42    43 1   
    47    42    44 1   
    48    42    45 1   
@<TRIPOS>SUBSTRUCTURE
     1 Q8C         1 TEMP              0 ****  ****    0 ROOT
