@<TRIPOS>MOLECULE
Q8D
   32    34     1     0     0
SMALL
abcg2


@<TRIPOS>ATOM
      1 C05          2.8960   -47.0030    16.7470 ca         1 Q8D      -0.004600
      2 C06          0.1900   -47.2490    19.3980 c          1 Q8D       0.717600
      3 C18          8.4820   -49.7810    17.5840 c6         1 Q8D      -0.076400
      4 C17          7.6230   -50.3490    16.4590 c6         1 Q8D      -0.072900
      5 C16          8.5190   -48.2580    17.5290 c6         1 Q8D      -0.072900
      6 C15          7.1120   -47.6650    17.5660 c6         1 Q8D      -0.091900
      7 C11          2.5760   -48.1350    19.2220 ca         1 Q8D      -0.032000
      8 C04          3.9340   -47.7300    17.3350 ca         1 Q8D      -0.084200
      9 N01          4.5270   -46.9630    15.3610 nc         1 Q8D      -0.215400
     10 N02          4.9290   -47.6680    16.4150 na         1 Q8D       0.048600
     11 N03          3.3280   -46.5570    15.5310 nd         1 Q8D      -0.233400
     12 C07          1.6700   -46.8340    17.3980 ca         1 Q8D      -0.022000
     13 C08          1.5100   -47.4040    18.6430 ca         1 Q8D      -0.166600
     14 C09          3.7880   -48.3160    18.5980 ca         1 Q8D      -0.175000
     15 C10          6.2650   -48.2460    16.4360 c6         1 Q8D       0.110300
     16 O12          0.1380   -47.7590    20.5330 o          1 Q8D      -0.717500
     17 O13         -0.7150   -46.6270    18.8090 o          1 Q8D      -0.717500
     18 C14          6.2120   -49.7710    16.4890 c6         1 Q8D      -0.091900
     19 H3           7.5740   -51.4380    16.5260 hc         1 Q8D       0.036700
     20 H4           8.0880   -50.1170    15.4950 hc         1 Q8D       0.036700
     21 H5           9.1030   -47.8580    18.3600 hc         1 Q8D       0.036700
     22 H6           9.0230   -47.9380    16.6110 hc         1 Q8D       0.036700
     23 H7           7.1510   -46.5780    17.4740 hc         1 Q8D       0.056950
     24 H8           6.6550   -47.8900    18.5340 hc         1 Q8D       0.056950
     25 H9           2.4230   -48.5700    20.1990 ha         1 Q8D       0.132000
     26 H10          0.8690   -46.2730    16.9360 ha         1 Q8D       0.148000
     27 H11          4.5770   -48.8850    19.0700 ha         1 Q8D       0.098000
     28 H12          6.7090   -47.9490    15.4830 h1         1 Q8D       0.071700
     29 H14          5.6250   -50.1450    15.6470 hc         1 Q8D       0.056950
     30 H15          5.7050   -50.0960    17.4020 hc         1 Q8D       0.056950
     31 H1           8.0730   -50.0980    18.5490 hc         1 Q8D       0.037200
     32 H2           9.4950   -50.1850    17.5260 hc         1 Q8D       0.037200
@<TRIPOS>BOND
     1     1     8 ar  
     2     1    11 1   
     3     1    12 ar  
     4     2    13 1   
     5     2    16 1   
     6     2    17 1   
     7     3     4 1   
     8     3     5 1   
     9     3    31 1   
    10     3    32 1   
    11     4    18 1   
    12     4    19 1   
    13     4    20 1   
    14     5     6 1   
    15     5    21 1   
    16     5    22 1   
    17     6    15 1   
    18     6    23 1   
    19     6    24 1   
    20     7    13 ar  
    21     7    14 ar  
    22     7    25 1   
    23     8    10 1   
    24     8    14 ar  
    25     9    10 1   
    26     9    11 2   
    27    10    15 1   
    28    12    13 ar  
    29    12    26 1   
    30    14    27 1   
    31    15    18 1   
    32    15    28 1   
    33    18    29 1   
    34    18    30 1   
@<TRIPOS>SUBSTRUCTURE
     1 Q8D         1 TEMP              0 ****  ****    0 ROOT
