@<TRIPOS>MOLECULE
Q8D
   32    34     1     0     0
SMALL
No Charge or Current Charge


@<TRIPOS>ATOM
      1 C05          2.8670   -46.9750    16.7130 ca         1 Q8D      -0.004600
      2 C06          0.2400   -47.2910    19.4730 c          1 Q8D       0.717600
      3 C18          8.4460   -49.8030    17.6700 c6         1 Q8D      -0.076400
      4 C17          7.6220   -50.3890    16.4970 c6         1 Q8D      -0.072900
      5 C16          8.5150   -48.2570    17.5910 c6         1 Q8D      -0.072900
      6 C15          7.0980   -47.6320    17.5530 c6         1 Q8D      -0.091900
      7 C11          2.6270   -48.1610    19.2200 ca         1 Q8D      -0.032000
      8 C04          3.9070   -47.6770    17.2330 ca         1 Q8D      -0.084200
      9 N01          4.4480   -46.8670    15.2120 nc         1 Q8D      -0.215400
     10 N02          4.9070   -47.6130    16.2910 na         1 Q8D       0.048600
     11 N03          3.2010   -46.4750    15.4660 nd         1 Q8D      -0.233400
     12 C07          1.6590   -46.8270    17.4100 ca         1 Q8D      -0.022000
     13 C08          1.5290   -47.4290    18.6890 ca         1 Q8D      -0.166600
     14 C09          3.8300   -48.2920    18.4940 ca         1 Q8D      -0.175000
     15 C10          6.2560   -48.2280    16.3890 c6         1 Q8D       0.110300
     16 O12          0.1630   -47.8230    20.5710 o          1 Q8D      -0.717500
     17 O13         -0.6780   -46.6520    18.9790 o          1 Q8D      -0.717500
     18 C14          6.1980   -49.7810    16.4500 c6         1 Q8D      -0.091900
     19 H3           7.5580   -51.4820    16.5960 hc         1 Q8D       0.036700
     20 H4           8.1400   -50.1930    15.5470 hc         1 Q8D       0.036700
     21 H5           9.0730   -47.8640    18.4520 hc         1 Q8D       0.036700
     22 H6           9.0760   -47.9580    16.6940 hc         1 Q8D       0.036700
     23 H7           7.1790   -46.5430    17.4320 hc         1 Q8D       0.056950
     24 H8           6.6050   -47.7990    18.5180 hc         1 Q8D       0.056950
     25 H9           2.5510   -48.6320    20.1990 ha         1 Q8D       0.132000
     26 H10          0.8450   -46.2580    16.9670 ha         1 Q8D       0.148000
     27 H11          4.6570   -48.8540    18.9140 ha         1 Q8D       0.098000
     28 H12          6.7800   -47.9690    15.4580 h1         1 Q8D       0.071700
     29 H14          5.6610   -50.1660    15.5730 hc         1 Q8D       0.056950
     30 H15          5.6340   -50.1170    17.3290 hc         1 Q8D       0.056950
     31 H1           7.9950   -50.1040    18.6260 hc         1 Q8D       0.037200
     32 H2           9.4610   -50.2210    17.6580 hc         1 Q8D       0.037200
@<TRIPOS>BOND
     1     1     8 ar  
     2     1    11 1   
     3     1    12 ar  
     4     2    13 1   
     5     2    16 1   
     6     2    17 1   
     7     3     4 1   
     8     3     5 1   
     9     3    31 1   
    10     3    32 1   
    11     4    18 1   
    12     4    19 1   
    13     4    20 1   
    14     5     6 1   
    15     5    21 1   
    16     5    22 1   
    17     6    15 1   
    18     6    23 1   
    19     6    24 1   
    20     7    13 ar  
    21     7    14 ar  
    22     7    25 1   
    23     8    10 1   
    24     8    14 ar  
    25     9    10 1   
    26     9    11 2   
    27    10    15 1   
    28    12    13 ar  
    29    12    26 1   
    30    14    27 1   
    31    15    18 1   
    32    15    28 1   
    33    18    29 1   
    34    18    30 1   
@<TRIPOS>SUBSTRUCTURE
     1 Q8D         1 TEMP              0 ****  ****    0 ROOT
