@<TRIPOS>MOLECULE
Q8F
   63    65     1     0     0
SMALL
No Charge or Current Charge


@<TRIPOS>ATOM
      1 C4          11.5240    -0.7470     5.5210 ca         1 Q8F      -0.159000
      2 C5          12.1520    -1.3040     6.6390 ca         1 Q8F       0.216000
      3 C6          13.1010    -0.5570     7.3740 ca         1 Q8F      -0.189600
      4 C7          13.8200    -1.0790     8.6030 c          1 Q8F       0.612700
      5 C10         13.5240    -4.3660    10.4430 ca         1 Q8F      -0.088300
      6 C13         12.4190    -6.9170    10.8940 ca         1 Q8F       0.162000
      7 C15         14.1840    -5.5240     9.9820 ca         1 Q8F      -0.077000
      8 C20         12.3400    -1.2650    14.7070 c3         1 Q8F       0.151600
      9 C22         10.5560     0.0290    15.7770 c3         1 Q8F       0.140900
     10 C28         13.3020     4.3300     3.3990 ca         1 Q8F       0.013000
     11 C29         13.3750     4.3130     1.9860 ca         1 Q8F      -0.137300
     12 C31         13.6010     5.5110     1.2790 ca         1 Q8F      -0.033000
     13 C32         13.7590     6.7360     1.9580 ca         1 Q8F      -0.218300
     14 C35         13.9940     8.0310     1.1740 c3         1 Q8F       0.348300
     15 F37         12.8250     8.5830     0.7780 f          1 Q8F      -0.114000
     16 F38         14.7330     7.8270     0.0590 f          1 Q8F      -0.114000
     17 F36         14.6460     8.9670     1.9020 f          1 Q8F      -0.114000
     18 C33         13.6640     6.7510     3.3640 ca         1 Q8F      -0.032000
     19 C34         13.4380     5.5620     4.0750 ca         1 Q8F      -0.141000
     20 C2          12.7860     1.3250     5.7920 ca         1 Q8F      -0.172600
     21 C1          13.3970     0.7550     6.9360 ca         1 Q8F       0.011000
     22 C3          11.8240     0.5520     5.0900 ca         1 Q8F       0.180000
     23 F24         11.7990    -2.5610     6.9890 f          1 Q8F      -0.172000
     24 O23         14.6070    -0.3840     9.2290 o          1 Q8F      -0.580100
     25 N8          13.5630    -2.3670     9.0050 ns         1 Q8F      -0.499900
     26 C9          14.1590    -3.0040    10.1770 c3         1 Q8F       0.151300
     27 C14         13.6330    -6.7970    10.2060 ca         1 Q8F      -0.136000
     28 F16         11.8890    -8.1400    11.1120 f          1 Q8F      -0.182000
     29 C12         11.7490    -5.7740    11.3550 ca         1 Q8F      -0.128000
     30 C11         12.2900    -4.4910    11.1340 ca         1 Q8F      -0.059300
     31 C19         11.5490    -1.6350    13.4280 c3         1 Q8F       0.122600
     32 O21         11.8880     0.0080    15.2270 os         1 Q8F      -0.456000
     33 H1          10.7820    -1.3310     4.9840 ha         1 Q8F       0.157000
     34 H2          15.1270    -5.4390     9.4460 ha         1 Q8F       0.117000
     35 H3          11.5290    -2.4820    10.8820 h1         1 Q8F       0.032700
     36 H4          10.4800    -3.5410    11.8350 h1         1 Q8F       0.032700
     37 H5          12.2210    -2.0600    15.4560 h1         1 Q8F       0.061200
     38 H6          13.4060    -1.2030    14.4520 h1         1 Q8F       0.061200
     39 H7          10.3450     1.0110    16.2210 h1         1 Q8F       0.031700
     40 H8           9.8010    -0.1560    15.0030 h1         1 Q8F       0.031700
     41 H9          10.4450    -0.7290    16.5630 h1         1 Q8F       0.031700
     42 H10         13.9060     2.2400     1.5660 hc         1 Q8F       0.046033
     43 H11         12.1930     2.6200     1.2950 hc         1 Q8F       0.046033
     44 H12         13.4150     3.1480     0.1350 hc         1 Q8F       0.046033
     45 H13         13.6520     5.4880     0.1920 ha         1 Q8F       0.130000
     46 H14         13.7580     7.6860     3.9140 ha         1 Q8F       0.133000
     47 H15         13.3550     5.6240     5.1550 ha         1 Q8F       0.158000
     48 H16         12.7180     2.3670     3.4850 hn         1 Q8F       0.160000
     49 H17         14.1310     1.3420     7.4870 ha         1 Q8F       0.165000
     50 H19         12.9090    -2.9010     8.4470 hn         1 Q8F       0.325500
     51 H20         15.2370    -3.1220    10.0050 h1         1 Q8F       0.073700
     52 H21         14.0360    -2.3510    11.0510 h1         1 Q8F       0.073700
     53 H22         14.1450    -7.6870     9.8500 ha         1 Q8F       0.133000
     54 H23         10.8080    -5.8890    11.8870 ha         1 Q8F       0.133000
     55 H24         11.5920    -0.7980    12.7190 h1         1 Q8F       0.029200
     56 H25         10.4990    -1.8300    13.6790 h1         1 Q8F       0.029200
     57 Cl1         10.8850     1.1470     3.7180 cl         1 Q8F      -0.174000
     58 C26         13.2020     2.7350     5.4140 c          1 Q8F       0.626700
     59 C17         11.5270    -3.2700    11.6460 c3         1 Q8F       0.203900
     60 N27         13.0600     3.1060     4.0850 ns         1 Q8F      -0.138000
     61 O39         13.6620     3.4910     6.2620 o          1 Q8F      -0.552100
     62 C30         13.2140     3.0100     1.2040 c3         1 Q8F      -0.049800
     63 O18         12.1520    -2.8090    12.8560 os         1 Q8F      -0.460000
@<TRIPOS>BOND
     1     1     2 ar  
     2     1    22 ar  
     3     1    33 1   
     4     2     3 ar  
     5     2    23 1   
     6     3     4 1   
     7     3    21 ar  
     8     4    24 2   
     9     4    25 1   
    10     5     7 ar  
    11     5    26 1   
    12     5    30 ar  
    13     6    27 ar  
    14     6    28 1   
    15     6    29 ar  
    16     7    27 ar  
    17     7    34 1   
    18     8    31 1   
    19     8    32 1   
    20     8    37 1   
    21     8    38 1   
    22     9    32 1   
    23     9    39 1   
    24     9    40 1   
    25     9    41 1   
    26    10    11 ar  
    27    10    19 ar  
    28    10    60 1   
    29    11    12 ar  
    30    11    62 1   
    31    12    13 ar  
    32    12    45 1   
    33    13    14 1   
    34    13    18 ar  
    35    14    15 1   
    36    14    16 1   
    37    14    17 1   
    38    18    19 ar  
    39    18    46 1   
    40    19    47 1   
    41    20    21 ar  
    42    20    22 ar  
    43    20    58 1   
    44    21    49 1   
    45    22    57 1   
    46    25    26 1   
    47    25    50 1   
    48    26    51 1   
    49    26    52 1   
    50    27    53 1   
    51    29    30 ar  
    52    29    54 1   
    53    30    59 1   
    54    31    55 1   
    55    31    56 1   
    56    31    63 1   
    57    35    59 1   
    58    36    59 1   
    59    42    62 1   
    60    43    62 1   
    61    44    62 1   
    62    48    60 1   
    63    58    60 1   
    64    58    61 2   
    65    59    63 1   
@<TRIPOS>SUBSTRUCTURE
     1 Q8F         1 TEMP              0 ****  ****    0 ROOT
