@<TRIPOS>MOLECULE
Q8F
   63    65     1     0     0
SMALL
abcg2


@<TRIPOS>ATOM
      1 C4           9.5330     0.7720     5.6740 ca         1 Q8F      -0.159000
      2 C5           9.9400     0.0680     6.7900 ca         1 Q8F       0.216000
      3 C6          11.1490     0.3090     7.4390 ca         1 Q8F      -0.189600
      4 C7          11.6360    -0.3730     8.6860 c          1 Q8F       0.612700
      5 C10         12.8030    -3.1670    10.0250 ca         1 Q8F      -0.088300
      6 C13         15.1190    -4.6750     9.8610 ca         1 Q8F       0.162000
      7 C15         13.6140    -3.1090     8.8970 ca         1 Q8F      -0.077000
      8 C20         11.7890    -1.4960    14.8630 c3         1 Q8F       0.151600
      9 C22         11.1900    -1.9850    17.1170 c3         1 Q8F       0.140900
     10 C28         13.7780     3.8090     3.2250 ca         1 Q8F       0.013000
     11 C29         13.9260     3.4950     1.8590 ca         1 Q8F      -0.137300
     12 C31         14.7330     4.3120     1.0770 ca         1 Q8F      -0.033000
     13 C32         15.3840     5.4160     1.6160 ca         1 Q8F      -0.218300
     14 C35         16.2380     6.3010     0.7630 c3         1 Q8F       0.348300
     15 F37         15.7270     7.5560     0.6510 f          1 Q8F      -0.114000
     16 F38         16.3900     5.8380    -0.4940 f          1 Q8F      -0.114000
     17 F36         17.4850     6.4570     1.2730 f          1 Q8F      -0.114000
     18 C33         15.2320     5.7160     2.9660 ca         1 Q8F      -0.032000
     19 C34         14.4360     4.9180     3.7690 ca         1 Q8F      -0.141000
     20 C2          11.6080     2.0210     5.7550 ca         1 Q8F      -0.172600
     21 C1          11.9530     1.3100     6.9000 ca         1 Q8F       0.011000
     22 C3          10.3760     1.7440     5.1570 ca         1 Q8F       0.180000
     23 F24          9.0890    -0.8680     7.2640 f          1 Q8F      -0.172000
     24 O23         12.4460     0.1940     9.4200 o          1 Q8F      -0.580100
     25 N8          11.1710    -1.6090     8.9400 ns         1 Q8F      -0.499900
     26 C9          11.5340    -2.3420    10.1350 c3         1 Q8F       0.151300
     27 C14         14.7820    -3.8600     8.8010 ca         1 Q8F      -0.136000
     28 F16         16.2570    -5.4150     9.7930 f          1 Q8F      -0.182000
     29 C12         14.3390    -4.7630    10.9990 ca         1 Q8F      -0.128000
     30 C11         13.1730    -4.0090    11.0870 ca         1 Q8F      -0.059300
     31 C19         11.5250    -2.8080    14.1400 c3         1 Q8F       0.122600
     32 O21         10.8760    -1.2720    15.9270 os         1 Q8F      -0.456000
     33 H1           8.5690     0.5690     5.2310 ha         1 Q8F       0.157000
     34 H2          13.3350    -2.4710     8.0690 ha         1 Q8F       0.117000
     35 H3          11.2810    -4.2800    12.0730 h1         1 Q8F       0.032700
     36 H4          12.6660    -4.9440    12.9510 h1         1 Q8F       0.032700
     37 H5          12.8220    -1.4760    15.2320 h1         1 Q8F       0.061200
     38 H6          11.6610    -0.6690    14.1620 h1         1 Q8F       0.061200
     39 H7          10.4590    -1.6880    17.8680 h1         1 Q8F       0.031700
     40 H8          11.1320    -3.0680    16.9760 h1         1 Q8F       0.031700
     41 H9          12.1950    -1.7270    17.4700 h1         1 Q8F       0.031700
     42 H10         13.5410     1.3730     1.7200 hc         1 Q8F       0.046033
     43 H11         12.1460     2.3840     1.3410 hc         1 Q8F       0.046033
     44 H12         13.4700     2.2390     0.1850 hc         1 Q8F       0.046033
     45 H13         14.8490     4.0760     0.0280 ha         1 Q8F       0.130000
     46 H14         15.7360     6.5710     3.3980 ha         1 Q8F       0.133000
     47 H15         14.3210     5.1450     4.8150 ha         1 Q8F       0.158000
     48 H16         12.5660     2.1840     3.4930 hn         1 Q8F       0.160000
     49 H17         12.8860     1.5340     7.3970 ha         1 Q8F       0.165000
     50 H19         10.5420    -2.0460     8.2870 hn         1 Q8F       0.325500
     51 H20         11.6390    -1.6300    10.9530 h1         1 Q8F       0.073700
     52 H21         10.6940    -2.9930    10.3830 h1         1 Q8F       0.073700
     53 H22         15.4130    -3.8120     7.9240 ha         1 Q8F       0.133000
     54 H23         14.6390    -5.4150    11.8100 ha         1 Q8F       0.133000
     55 H24         10.4950    -2.8270    13.7640 h1         1 Q8F       0.029200
     56 H25         11.6580    -3.6640    14.8130 h1         1 Q8F       0.029200
     57 CL1          9.8100     2.6450     3.7760 cl         1 Q8F      -0.174000
     58 C26         12.5730     3.0790     5.2920 c          1 Q8F       0.626700
     59 C17         12.3330    -4.1060    12.3300 c3         1 Q8F       0.203900
     60 N27         12.9550     2.9700     3.9900 ns         1 Q8F      -0.138000
     61 O39         12.9830     3.9250     6.0740 o          1 Q8F      -0.552100
     62 C30         13.2330     2.3100     1.2450 c3         1 Q8F      -0.049800
     63 O18         12.4460    -2.8870    13.0630 os         1 Q8F      -0.460000
@<TRIPOS>BOND
     1     1     2 ar  
     2     1    22 ar  
     3     1    33 1   
     4     2     3 ar  
     5     2    23 1   
     6     3     4 1   
     7     3    21 ar  
     8     4    24 2   
     9     4    25 1   
    10     5     7 ar  
    11     5    26 1   
    12     5    30 ar  
    13     6    27 ar  
    14     6    28 1   
    15     6    29 ar  
    16     7    27 ar  
    17     7    34 1   
    18     8    31 1   
    19     8    32 1   
    20     8    37 1   
    21     8    38 1   
    22     9    32 1   
    23     9    39 1   
    24     9    40 1   
    25     9    41 1   
    26    10    11 ar  
    27    10    19 ar  
    28    10    60 1   
    29    11    12 ar  
    30    11    62 1   
    31    12    13 ar  
    32    12    45 1   
    33    13    14 1   
    34    13    18 ar  
    35    14    15 1   
    36    14    16 1   
    37    14    17 1   
    38    18    19 ar  
    39    18    46 1   
    40    19    47 1   
    41    20    21 ar  
    42    20    22 ar  
    43    20    58 1   
    44    21    49 1   
    45    22    57 1   
    46    25    26 1   
    47    25    50 1   
    48    26    51 1   
    49    26    52 1   
    50    27    53 1   
    51    29    30 ar  
    52    29    54 1   
    53    30    59 1   
    54    31    55 1   
    55    31    56 1   
    56    31    63 1   
    57    35    59 1   
    58    36    59 1   
    59    42    62 1   
    60    43    62 1   
    61    44    62 1   
    62    48    60 1   
    63    58    60 1   
    64    58    61 2   
    65    59    63 1   
@<TRIPOS>SUBSTRUCTURE
     1 Q8F         1 TEMP              0 ****  ****    0 ROOT
