@<TRIPOS>MOLECULE
Q8G
   33    35     1     0     0
SMALL
abcg2


@<TRIPOS>ATOM
      1 C05        -28.7130   -72.2960    33.2450 ca         1 Q8G       0.039400
      2 C06        -26.0500   -72.2840    30.5310 c          1 Q8G       0.715600
      3 C18        -34.7840   -74.0260    32.5550 c6         1 Q8G      -0.076400
      4 C17        -33.6550   -74.9210    32.0570 c6         1 Q8G      -0.073400
      5 C16        -34.4720   -72.5470    32.2750 c6         1 Q8G      -0.073400
      6 C15        -32.9630   -72.2640    32.2400 c6         1 Q8G      -0.090400
      7 C11        -28.5250   -72.8700    30.5560 ca         1 Q8G      -0.051000
      8 C02        -30.3200   -72.3770    34.6230 cc         1 Q8G       0.378700
      9 C04        -29.8350   -72.7380    32.5240 ca         1 Q8G      -0.088200
     10 N01        -30.8560   -72.7810    33.4420 na         1 Q8G      -0.196600
     11 N03        -29.0550   -72.0790    34.5610 nd         1 Q8G      -0.576100
     12 C07        -27.3840   -72.4330    31.2560 ca         1 Q8G      -0.161600
     13 C08        -27.4830   -72.1440    32.6080 ca         1 Q8G      -0.032000
     14 C09        -29.7560   -73.0320    31.1640 ca         1 Q8G      -0.172000
     15 C10        -32.2430   -73.1680    33.2360 c6         1 Q8G       0.108300
     16 O12        -26.0470   -72.5340    29.3090 o          1 Q8G      -0.722000
     17 O13        -25.0760   -71.9270    31.2230 o          1 Q8G      -0.722000
     18 C14        -32.3660   -74.6500    32.8400 c6         1 Q8G      -0.090400
     19 H3         -33.9250   -75.9740    32.1460 hc         1 Q8G       0.037200
     20 H4         -33.4920   -74.7370    30.9910 hc         1 Q8G       0.037200
     21 H5         -34.9070   -72.2490    31.3200 hc         1 Q8G       0.037200
     22 H6         -34.9450   -71.9230    33.0360 hc         1 Q8G       0.037200
     23 H7         -32.5750   -72.4340    31.2330 hc         1 Q8G       0.056700
     24 H8         -32.7690   -71.2170    32.4770 hc         1 Q8G       0.056700
     25 H9         -28.4320   -73.0890    29.5020 ha         1 Q8G       0.128000
     26 H10        -30.9290   -72.3240    35.5140 h5         1 Q8G       0.035800
     27 H11        -26.6160   -71.8070    33.1630 ha         1 Q8G       0.143000
     28 H12        -30.6090   -73.3750    30.5940 ha         1 Q8G       0.092000
     29 H13        -32.7200   -73.0240    34.2100 h1         1 Q8G       0.044700
     30 H15        -32.3400   -75.2570    33.7480 hc         1 Q8G       0.056700
     31 H16        -31.5030   -74.9530    32.2430 hc         1 Q8G       0.056700
     32 H1         -35.7310   -74.3040    32.0900 hc         1 Q8G       0.032700
     33 H2         -34.9150   -74.1870    33.6290 hc         1 Q8G       0.032700
@<TRIPOS>BOND
     1     1     9 ar  
     2     1    11 1   
     3     1    13 ar  
     4     2    12 1   
     5     2    16 1   
     6     2    17 1   
     7     3     4 1   
     8     3     5 1   
     9     3    32 1   
    10     3    33 1   
    11     4    18 1   
    12     4    19 1   
    13     4    20 1   
    14     5     6 1   
    15     5    21 1   
    16     5    22 1   
    17     6    15 1   
    18     6    23 1   
    19     6    24 1   
    20     7    12 ar  
    21     7    14 ar  
    22     7    25 1   
    23     8    10 1   
    24     8    11 2   
    25     8    26 1   
    26     9    10 1   
    27     9    14 ar  
    28    10    15 1   
    29    12    13 ar  
    30    13    27 1   
    31    14    28 1   
    32    15    18 1   
    33    15    29 1   
    34    18    30 1   
    35    18    31 1   
@<TRIPOS>SUBSTRUCTURE
     1 Q8G         1 TEMP              0 ****  ****    0 ROOT
