@<TRIPOS>MOLECULE
Q8G
   33    35     1     0     0
SMALL
No Charge or Current Charge


@<TRIPOS>ATOM
      1 C05        -28.7020   -72.2840    33.2600 ca         1 Q8G       0.039400
      2 C06        -26.0930   -72.2660    30.4590 c          1 Q8G       0.715600
      3 C18        -34.8070   -74.0200    32.4530 c6         1 Q8G      -0.076400
      4 C17        -33.6490   -74.9520    32.0260 c6         1 Q8G      -0.073400
      5 C16        -34.4620   -72.5210    32.2160 c6         1 Q8G      -0.073400
      6 C15        -32.9380   -72.2170    32.3020 c6         1 Q8G      -0.090400
      7 C11        -28.5610   -72.9220    30.5450 ca         1 Q8G      -0.051000
      8 C02        -30.2720   -72.3500    34.7430 cc         1 Q8G       0.378700
      9 C04        -29.8070   -72.7480    32.6010 ca         1 Q8G      -0.088200
     10 N01        -30.8100   -72.7930    33.5340 na         1 Q8G      -0.196600
     11 N03        -28.9690   -72.0290    34.6040 nd         1 Q8G      -0.576100
     12 C07        -27.3990   -72.4370    31.2090 ca         1 Q8G      -0.161600
     13 C08        -27.4800   -72.1170    32.5900 ca         1 Q8G      -0.032000
     14 C09        -29.7780   -73.0830    31.2390 ca         1 Q8G      -0.172000
     15 C10        -32.2190   -73.1830    33.2820 c6         1 Q8G       0.108300
     16 O12        -26.0580   -72.5530    29.2700 o          1 Q8G      -0.722000
     17 O13        -25.1190   -71.8480    31.0680 o          1 Q8G      -0.722000
     18 C14        -32.3600   -74.6780    32.8530 c6         1 Q8G      -0.090400
     19 H3         -33.9460   -76.0040    32.1370 hc         1 Q8G       0.037200
     20 H4         -33.4400   -74.8030    30.9570 hc         1 Q8G       0.037200
     21 H5         -34.8320   -72.2070    31.2300 hc         1 Q8G       0.037200
     22 H6         -35.0040   -71.9110    32.9510 hc         1 Q8G       0.037200
     23 H7         -32.4990   -72.2990    31.3000 hc         1 Q8G       0.056700
     24 H8         -32.7880   -71.1760    32.6160 hc         1 Q8G       0.056700
     25 H9         -28.5220   -73.1780    29.4880 ha         1 Q8G       0.128000
     26 H10        -30.8580   -72.2810    35.6520 h5         1 Q8G       0.035800
     27 H11        -26.6150   -71.7460    33.1340 ha         1 Q8G       0.143000
     28 H12        -30.6540   -73.4610    30.7210 ha         1 Q8G       0.092000
     29 H13        -32.7450   -73.0820    34.2430 h1         1 Q8G       0.044700
     30 H15        -32.3640   -75.3000    33.7580 hc         1 Q8G       0.056700
     31 H16        -31.4910   -75.0110    32.2720 hc         1 Q8G       0.056700
     32 H1         -35.7250   -74.2820    31.9090 hc         1 Q8G       0.032700
     33 H2         -35.0260   -74.1840    33.5180 hc         1 Q8G       0.032700
@<TRIPOS>BOND
     1     1     9 ar  
     2     1    11 1   
     3     1    13 ar  
     4     2    12 1   
     5     2    16 1   
     6     2    17 1   
     7     3     4 1   
     8     3     5 1   
     9     3    32 1   
    10     3    33 1   
    11     4    18 1   
    12     4    19 1   
    13     4    20 1   
    14     5     6 1   
    15     5    21 1   
    16     5    22 1   
    17     6    15 1   
    18     6    23 1   
    19     6    24 1   
    20     7    12 ar  
    21     7    14 ar  
    22     7    25 1   
    23     8    10 1   
    24     8    11 2   
    25     8    26 1   
    26     9    10 1   
    27     9    14 ar  
    28    10    15 1   
    29    12    13 ar  
    30    13    27 1   
    31    14    28 1   
    32    15    18 1   
    33    15    29 1   
    34    18    30 1   
    35    18    31 1   
@<TRIPOS>SUBSTRUCTURE
     1 Q8G         1 TEMP              0 ****  ****    0 ROOT
