@<TRIPOS>MOLECULE
Q8I
   24    25     1     0     0
SMALL
No Charge or Current Charge


@<TRIPOS>ATOM
      1 N1           6.1430    23.8300     1.4480 na         1 Q8I      -0.227700
      2 C4           6.1090    23.3690     0.1440 ca         1 Q8I      -0.064200
      3 C5           5.2500    22.4250    -0.4350 ca         1 Q8I      -0.101000
      4 C6           5.4300    22.1260    -1.8050 ca         1 Q8I      -0.126000
      5 C7           6.4500    22.7680    -2.5460 ca         1 Q8I       0.133000
      6 C8           7.3000    23.7140    -1.9360 ca         1 Q8I      -0.100000
      7 F            6.6110    22.4720    -3.8540 f          1 Q8I      -0.191000
      8 C9           7.0920    23.9870    -0.5770 ca         1 Q8I      -0.066800
      9 C3           7.1770    24.7800     1.5970 cc         1 Q8I      -0.143100
     10 C2           7.7680    24.8770     0.3410 cd         1 Q8I      -0.184400
     11 C1           8.9270    25.7780    -0.0080 c3         1 Q8I       0.223000
     12 N           10.2140    25.1810     0.4000 n7         1 Q8I      -0.851400
     13 C           10.6130    23.9590    -0.3280 c3         1 Q8I       0.138100
     14 H1           5.5150    23.5270     2.1870 hn         1 Q8I       0.353000
     15 H2           4.4700    21.9390     0.1470 ha         1 Q8I       0.118000
     16 H3           4.7840    21.4000    -2.2920 ha         1 Q8I       0.131000
     17 H4           8.0850    24.2070    -2.5030 ha         1 Q8I       0.135000
     18 H5           7.3960    25.2830     2.5350 h4         1 Q8I       0.214000
     19 H6           8.9170    25.9870    -1.0870 h1         1 Q8I       0.056700
     20 H7           8.7800    26.7400     0.5040 h1         1 Q8I       0.056700
     21 H8          10.1380    24.9480     1.3970 hn         1 Q8I       0.399000
     22 H10         11.5930    23.6060     0.0200 h1         1 Q8I       0.032700
     23 H11          9.8880    23.1490    -0.1730 h1         1 Q8I       0.032700
     24 H12         10.6850    24.1520    -1.4080 h1         1 Q8I       0.032700
@<TRIPOS>BOND
     1     1     2 1   
     2     1     9 1   
     3     1    14 1   
     4     2     3 ar  
     5     2     8 ar  
     6     3     4 ar  
     7     3    15 1   
     8     4     5 ar  
     9     4    16 1   
    10     5     6 ar  
    11     5     7 1   
    12     6     8 ar  
    13     6    17 1   
    14     8    10 1   
    15     9    10 2   
    16     9    18 1   
    17    10    11 1   
    18    11    12 1   
    19    11    19 1   
    20    11    20 1   
    21    12    13 1   
    22    12    21 1   
    23    13    22 1   
    24    13    23 1   
    25    13    24 1   
@<TRIPOS>SUBSTRUCTURE
     1 Q8I         1 TEMP              0 ****  ****    0 ROOT
