@<TRIPOS>MOLECULE
Q8I
   24    25     1     0     0
SMALL
abcg2


@<TRIPOS>ATOM
      1 N1           6.0920    23.8490     1.4290 na         1 Q8I      -0.227700
      2 C4           6.0690    23.3530     0.1470 ca         1 Q8I      -0.064200
      3 C5           5.2270    22.4140    -0.4460 ca         1 Q8I      -0.101000
      4 C6           5.4350    22.1090    -1.7830 ca         1 Q8I      -0.126000
      5 C7           6.4670    22.7450    -2.4790 ca         1 Q8I       0.133000
      6 C8           7.3160    23.6720    -1.9210 ca         1 Q8I      -0.100000
      7 F            6.6330    22.4180    -3.7970 f          1 Q8I      -0.191000
      8 C9           7.1200    23.9910    -0.5680 ca         1 Q8I      -0.066800
      9 C3           7.1060    24.7700     1.5400 cc         1 Q8I      -0.143100
     10 C2           7.7720    24.8910     0.3430 cd         1 Q8I      -0.184400
     11 C1           8.9610    25.7690     0.0750 c3         1 Q8I       0.223000
     12 N           10.2810    25.1920     0.3790 n7         1 Q8I      -0.851400
     13 C           10.5860    23.9800    -0.3780 c3         1 Q8I       0.138100
     14 H1           5.4560    23.5950     2.1660 hn         1 Q8I       0.353000
     15 H2           4.4330    21.9370     0.1140 ha         1 Q8I       0.118000
     16 H3           4.8120    21.3890    -2.2960 ha         1 Q8I       0.131000
     17 H4           8.1000    24.1240    -2.5130 ha         1 Q8I       0.135000
     18 H5           7.2810    25.2820     2.4730 h4         1 Q8I       0.214000
     19 H6           8.9660    26.0620    -0.9790 h1         1 Q8I       0.056700
     20 H7           8.8700    26.6860     0.6610 h1         1 Q8I       0.056700
     21 H8          10.3100    24.9750     1.3700 hn         1 Q8I       0.399000
     22 H10         11.5770    23.6190    -0.0980 h1         1 Q8I       0.032700
     23 H11          9.8660    23.1650    -0.2250 h1         1 Q8I       0.032700
     24 H12         10.5990    24.2160    -1.4450 h1         1 Q8I       0.032700
@<TRIPOS>BOND
     1     1     2 1   
     2     1     9 1   
     3     1    14 1   
     4     2     3 ar  
     5     2     8 ar  
     6     3     4 ar  
     7     3    15 1   
     8     4     5 ar  
     9     4    16 1   
    10     5     6 ar  
    11     5     7 1   
    12     6     8 ar  
    13     6    17 1   
    14     8    10 1   
    15     9    10 2   
    16     9    18 1   
    17    10    11 1   
    18    11    12 1   
    19    11    19 1   
    20    11    20 1   
    21    12    13 1   
    22    12    21 1   
    23    13    22 1   
    24    13    23 1   
    25    13    24 1   
@<TRIPOS>SUBSTRUCTURE
     1 Q8I         1 TEMP              0 ****  ****    0 ROOT
