@<TRIPOS>MOLECULE
Q8J
   62    66     1     0     0
SMALL
No Charge or Current Charge


@<TRIPOS>ATOM
      1 C1           8.6070    -1.4530     0.8830 c3         1 Q8J       0.167800
      2 C2           6.2440    -2.1110     1.0470 c6         1 Q8J       0.143800
      3 C3           4.8070    -1.9280     0.4880 c6         1 Q8J       0.106500
      4 O1          -4.9330    -4.3890    -0.7840 os         1 Q8J      -0.443000
      5 C11          0.3940     3.5580    -1.0960 ca         1 Q8J       0.372900
      6 C12         -2.3850     1.2250    -0.0560 cc         1 Q8J      -0.117400
      7 C13         -2.6750    -0.1170    -0.2740 cd         1 Q8J      -0.111100
      8 C14         -4.8100    -1.5820    -0.1140 c6         1 Q8J       0.088300
      9 C15         -4.2270    -2.6770     0.8160 c6         1 Q8J      -0.130400
     10 C16         -4.9800    -4.0110     0.6090 c6         1 Q8J       0.154600
     11 C17         -5.5640    -3.4410    -1.6730 c6         1 Q8J       0.154600
     12 C18         -4.8400    -2.0780    -1.5830 c6         1 Q8J      -0.130400
     13 C19         -4.5730     0.9160     0.3880 ca         1 Q8J      -0.116200
     14 C20         -5.8810     1.2600     0.7790 ca         1 Q8J       0.339900
     15 C21         -5.2090     3.4690     1.1270 ca         1 Q8J       0.299900
     16 C22         -3.8800     3.1870     0.7470 ca         1 Q8J      -0.114000
     17 C23         -3.5950     1.8710     0.3640 ca         1 Q8J      -0.044800
     18 N            7.2190    -1.1710     0.4390 n3         1 Q8J      -0.717600
     19 C            9.6950    -0.6490     0.1410 c3         1 Q8J      -0.090100
     20 O            2.1190    -1.1780     0.2550 o          1 Q8J      -0.638100
     21 C10         -0.8970     3.0610    -0.8660 ca         1 Q8J      -0.198000
     22 C4           5.3560     0.5250     0.1560 c6         1 Q8J       0.106500
     23 C5           6.7730     0.2220     0.7160 c6         1 Q8J       0.143800
     24 C6           2.9400    -0.2740     0.2120 c          1 Q8J       0.681100
     25 C7           1.3600     1.6240    -0.2930 ca         1 Q8J       0.497900
     26 C8           0.1050     1.0480    -0.0240 ca         1 Q8J      -0.186000
     27 C9          -1.0580     1.7810    -0.3130 ca         1 Q8J       0.063200
     28 N1           4.3120    -0.5180     0.4290 n          1 Q8J      -0.430800
     29 N2           2.6020     1.0300    -0.0530 ns         1 Q8J      -0.335900
     30 N3           1.5130     2.8560    -0.8120 nb         1 Q8J      -0.751000
     31 N4          -4.0480    -0.3160     0.0050 na         1 Q8J      -0.068700
     32 N5          -6.1980     2.5320     1.1440 nb         1 Q8J      -0.660000
     33 H1           8.7050    -1.2650     1.9610 h1         1 Q8J       0.031200
     34 H2           8.8250    -2.5170     0.7230 h1         1 Q8J       0.031200
     35 H3           6.2150    -1.9690     2.1370 h1         1 Q8J       0.042200
     36 H4           6.5520    -3.1520     0.8710 h1         1 Q8J       0.042200
     37 H5           4.7780    -2.3410    -0.5300 h1         1 Q8J       0.059700
     38 H6           4.1220    -2.5340     1.0980 h1         1 Q8J       0.059700
     39 H7           0.5380     4.5490    -1.5240 h4         1 Q8J       0.016100
     40 H8          -2.0320    -0.9210    -0.6190 h4         1 Q8J       0.225000
     41 H9          -5.8470    -1.3980     0.1980 h1         1 Q8J       0.067700
     42 H10         -3.1590    -2.8310     0.6080 hc         1 Q8J       0.065450
     43 H11         -4.3040    -2.3630     1.8650 hc         1 Q8J       0.065450
     44 H12         -6.0300    -3.9130     0.9250 h1         1 Q8J       0.050450
     45 H13         -4.5150    -4.8040     1.2120 h1         1 Q8J       0.050450
     46 H14         -5.5140    -3.8270    -2.7010 h1         1 Q8J       0.050450
     47 H15         -6.6240    -3.3330    -1.3980 h1         1 Q8J       0.050450
     48 H16         -5.3490    -1.3420    -2.2210 hc         1 Q8J       0.065450
     49 H17         -3.8200    -2.1840    -1.9750 hc         1 Q8J       0.065450
     50 H18         -6.6860     0.5270     0.8110 h4         1 Q8J       0.016100
     51 H19         -5.4930     4.4750     1.4340 h4         1 Q8J       0.017100
     52 H20         -3.1200     3.9620     0.7650 ha         1 Q8J       0.126000
     53 H22          9.5920    -0.7700    -0.9440 hc         1 Q8J       0.038033
     54 H23          9.6390     0.4180     0.3830 hc         1 Q8J       0.038033
     55 H24         10.6890    -1.0070     0.4330 hc         1 Q8J       0.038033
     56 H25         -1.7570     3.6660    -1.1340 ha         1 Q8J       0.128000
     57 H26          5.0370     1.4920     0.5680 h1         1 Q8J       0.059700
     58 H27          5.4360     0.6480    -0.9340 h1         1 Q8J       0.059700
     59 H28          6.7640     0.4020     1.8020 h1         1 Q8J       0.042200
     60 H29          7.4670     0.9540     0.2790 h1         1 Q8J       0.042200
     61 H30          0.0270     0.0650     0.4220 ha         1 Q8J       0.156000
     62 H31          3.3730     1.6770    -0.1010 hn         1 Q8J       0.164000
@<TRIPOS>BOND
     1     1    18 1   
     2     1    19 1   
     3     1    33 1   
     4     1    34 1   
     5     2     3 1   
     6     2    18 1   
     7     2    35 1   
     8     2    36 1   
     9     3    28 1   
    10     3    37 1   
    11     3    38 1   
    12     4    10 1   
    13     4    11 1   
    14     5    21 ar  
    15     5    30 ar  
    16     5    39 1   
    17     6     7 2   
    18     6    17 1   
    19     6    27 1   
    20     7    31 1   
    21     7    40 1   
    22     8     9 1   
    23     8    12 1   
    24     8    31 1   
    25     8    41 1   
    26     9    10 1   
    27     9    42 1   
    28     9    43 1   
    29    10    44 1   
    30    10    45 1   
    31    11    12 1   
    32    11    46 1   
    33    11    47 1   
    34    12    48 1   
    35    12    49 1   
    36    13    14 ar  
    37    13    17 ar  
    38    13    31 1   
    39    14    32 ar  
    40    14    50 1   
    41    15    16 ar  
    42    15    32 ar  
    43    15    51 1   
    44    16    17 ar  
    45    16    52 1   
    46    18    23 1   
    47    19    53 1   
    48    19    54 1   
    49    19    55 1   
    50    20    24 2   
    51    21    27 ar  
    52    21    56 1   
    53    22    23 1   
    54    22    28 1   
    55    22    57 1   
    56    22    58 1   
    57    23    59 1   
    58    23    60 1   
    59    24    28 1   
    60    24    29 1   
    61    25    26 ar  
    62    25    29 1   
    63    25    30 ar  
    64    26    27 ar  
    65    26    61 1   
    66    29    62 1   
@<TRIPOS>SUBSTRUCTURE
     1 Q8J         1 TEMP              0 ****  ****    0 ROOT
