@<TRIPOS>MOLECULE
Q8J
   62    66     1     0     0
SMALL
abcg2


@<TRIPOS>ATOM
      1 C1           7.9540    -1.2150     1.5600 c3         1 Q8J       0.167800
      2 C2           5.7700    -1.9700     0.9220 c6         1 Q8J       0.143800
      3 C3           4.7180    -1.9630    -0.1700 c6         1 Q8J       0.106500
      4 O1          -4.7930    -4.3140    -0.9130 os         1 Q8J      -0.443000
      5 C11          0.4040     3.6640    -0.9980 ca         1 Q8J       0.372900
      6 C12         -2.2220     1.2040     0.0010 cc         1 Q8J      -0.117400
      7 C13         -2.5810    -0.0990    -0.2530 cd         1 Q8J      -0.111100
      8 C14         -4.5700    -1.5960    -0.0190 c6         1 Q8J       0.088300
      9 C15         -3.9010    -2.7490     0.7200 c6         1 Q8J      -0.130400
     10 C16         -4.6840    -4.0300     0.4640 c6         1 Q8J       0.154600
     11 C17         -5.4650    -3.2890    -1.6110 c6         1 Q8J       0.154600
     12 C18         -4.7460    -1.9530    -1.4910 c6         1 Q8J      -0.130400
     13 C19         -4.3560     0.8100     0.7000 ca         1 Q8J      -0.116200
     14 C20         -5.5940     1.0870     1.2740 ca         1 Q8J       0.339900
     15 C21         -4.9180     3.2340     1.7140 ca         1 Q8J       0.299900
     16 C22         -3.6660     3.0600     1.1640 ca         1 Q8J      -0.114000
     17 C23         -3.3620     1.8070     0.6210 ca         1 Q8J      -0.044800
     18 N            6.9070    -1.1490     0.5540 n3         1 Q8J      -0.717600
     19 C            9.2800    -0.6390     1.0920 c3         1 Q8J      -0.090100
     20 O            2.1210    -1.0800    -0.0550 o          1 Q8J      -0.638100
     21 C10         -0.8410     3.1620    -0.6740 ca         1 Q8J      -0.198000
     22 C4           5.4180     0.2520    -0.7990 c6         1 Q8J       0.106500
     23 C5           6.4760     0.2090     0.2920 c6         1 Q8J       0.143800
     24 C6           2.9810    -0.2740    -0.3890 c          1 Q8J       0.681100
     25 C7           1.4300     1.6530    -0.6770 ca         1 Q8J       0.497900
     26 C8           0.2250     1.0450    -0.3280 ca         1 Q8J      -0.186000
     27 C9          -0.9390     1.8120    -0.3290 ca         1 Q8J       0.063200
     28 N1           4.2960    -0.6040    -0.4570 n          1 Q8J      -0.430800
     29 N2           2.6650     1.0220    -0.7220 ns         1 Q8J      -0.335900
     30 N3           1.5150     2.9420    -1.0030 nb         1 Q8J      -0.751000
     31 N4          -3.8520    -0.3420     0.1540 na         1 Q8J      -0.068700
     32 N5          -5.8630     2.2810     1.7650 nb         1 Q8J      -0.660000
     33 H1           7.6410    -0.7200     2.4950 h1         1 Q8J       0.031200
     34 H2           8.1020    -2.2680     1.8080 h1         1 Q8J       0.031200
     35 H3           5.3090    -1.6370     1.8690 h1         1 Q8J       0.042200
     36 H4           6.1100    -2.9970     1.0750 h1         1 Q8J       0.042200
     37 H5           5.1310    -2.4090    -1.0810 h1         1 Q8J       0.059700
     38 H6           3.8630    -2.5600     0.1350 h1         1 Q8J       0.059700
     39 H7           0.5130     4.7070    -1.2750 h4         1 Q8J       0.016100
     40 H8          -2.0000    -0.8710    -0.7350 h4         1 Q8J       0.225000
     41 H9          -5.5610    -1.4440     0.4160 h1         1 Q8J       0.067700
     42 H10         -2.8710    -2.8740     0.3750 hc         1 Q8J       0.065450
     43 H11         -3.8700    -2.5510     1.7930 hc         1 Q8J       0.065450
     44 H12         -5.6830    -3.9430     0.9160 h1         1 Q8J       0.050450
     45 H13         -4.1850    -4.8800     0.9310 h1         1 Q8J       0.050450
     46 H14         -5.5240    -3.5940    -2.6560 h1         1 Q8J       0.050450
     47 H15         -6.4960    -3.1860    -1.2390 h1         1 Q8J       0.050450
     48 H16         -5.3220    -1.1810    -2.0070 hc         1 Q8J       0.065450
     49 H17         -3.7710    -2.0200    -1.9810 hc         1 Q8J       0.065450
     50 H18         -6.3750     0.3380     1.3400 h4         1 Q8J       0.016100
     51 H19         -5.1890     4.1920     2.1420 h4         1 Q8J       0.017100
     52 H20         -2.9560     3.8760     1.1740 ha         1 Q8J       0.126000
     53 H22          9.6120    -1.1300     0.1770 hc         1 Q8J       0.038033
     54 H23          9.2290     0.4330     0.9020 hc         1 Q8J       0.038033
     55 H24         10.0420    -0.7960     1.8550 hc         1 Q8J       0.038033
     56 H25         -1.7080     3.8040    -0.7250 ha         1 Q8J       0.128000
     57 H26          5.1280     1.2900    -0.9360 h1         1 Q8J       0.059700
     58 H27          5.8510    -0.0860    -1.7460 h1         1 Q8J       0.059700
     59 H28          6.0750     0.6940     1.2000 h1         1 Q8J       0.042200
     60 H29          7.3210     0.8100    -0.0470 h1         1 Q8J       0.042200
     61 H30          0.1930     0.0060    -0.0480 ha         1 Q8J       0.156000
     62 H31          3.3900     1.6540    -1.0200 hn         1 Q8J       0.164000
@<TRIPOS>BOND
     1     1    18 1   
     2     1    19 1   
     3     1    33 1   
     4     1    34 1   
     5     2     3 1   
     6     2    18 1   
     7     2    35 1   
     8     2    36 1   
     9     3    28 1   
    10     3    37 1   
    11     3    38 1   
    12     4    10 1   
    13     4    11 1   
    14     5    21 ar  
    15     5    30 ar  
    16     5    39 1   
    17     6     7 2   
    18     6    17 1   
    19     6    27 1   
    20     7    31 1   
    21     7    40 1   
    22     8     9 1   
    23     8    12 1   
    24     8    31 1   
    25     8    41 1   
    26     9    10 1   
    27     9    42 1   
    28     9    43 1   
    29    10    44 1   
    30    10    45 1   
    31    11    12 1   
    32    11    46 1   
    33    11    47 1   
    34    12    48 1   
    35    12    49 1   
    36    13    14 ar  
    37    13    17 ar  
    38    13    31 1   
    39    14    32 ar  
    40    14    50 1   
    41    15    16 ar  
    42    15    32 ar  
    43    15    51 1   
    44    16    17 ar  
    45    16    52 1   
    46    18    23 1   
    47    19    53 1   
    48    19    54 1   
    49    19    55 1   
    50    20    24 2   
    51    21    27 ar  
    52    21    56 1   
    53    22    23 1   
    54    22    28 1   
    55    22    57 1   
    56    22    58 1   
    57    23    59 1   
    58    23    60 1   
    59    24    28 1   
    60    24    29 1   
    61    25    26 ar  
    62    25    29 1   
    63    25    30 ar  
    64    26    27 ar  
    65    26    61 1   
    66    29    62 1   
@<TRIPOS>SUBSTRUCTURE
     1 Q8J         1 TEMP              0 ****  ****    0 ROOT
