@<TRIPOS>MOLECULE
Q8K
   54    58     1     0     0
SMALL
bcc


@<TRIPOS>ATOM
      1 C4          65.8430    27.3580    13.8500 cc         1 Q8K       0.437500
      2 C5          67.0760    25.5400    13.7130 cd         1 Q8K       0.418500
      3 C6          66.6570    26.6530    12.9620 cd         1 Q8K      -0.266800
      4 N1          65.1360    28.4790    13.7100 nc         1 Q8K      -0.758000
      5 C7          63.5190    30.4650    13.1900 c2         1 Q8K      -0.053000
      6 N2          65.8600    26.6450    15.0220 na         1 Q8K       0.038200
      7 C9          63.8770    31.6130    16.4490 c3         1 Q8K       0.116400
      8 C10         66.9610    27.0760    11.6010 ca         1 Q8K       0.012200
      9 C11         67.2460    26.2010    10.5530 ca         1 Q8K      -0.108000
     10 C12         67.4710    26.6910     9.2710 ca         1 Q8K      -0.140000
     11 N3          66.6080    25.5310    14.9480 nc         1 Q8K      -0.582100
     12 C13         67.3870    28.0500     8.9970 ca         1 Q8K      -0.082000
     13 C14         67.0930    28.9350    10.0320 ca         1 Q8K      -0.153600
     14 C15         66.9310    28.4410    11.3170 ca         1 Q8K      -0.101000
     15 N4          63.7290    30.0660    14.5360 nh         1 Q8K      -0.661100
     16 C2          64.4980    28.2640    16.0080 cd         1 Q8K      -0.343300
     17 C3          65.1970    27.1080    16.1070 cc         1 Q8K       0.023700
     18 C16         66.9720    30.4070     9.7820 c          1 Q8K       0.686700
     19 O2          67.5650    30.9620     8.8680 o          1 Q8K      -0.603100
     20 N5          66.1510    31.0410    10.6430 ns         1 Q8K      -0.577900
     21 C18         66.0700    32.4680    10.8550 c3         1 Q8K       0.072000
     22 C17         64.6300    32.9980    10.8280 c3         1 Q8K       0.199800
     23 N6          63.6390    32.1260    11.4400 nh         1 Q8K      -0.637400
     24 C19         63.9040    31.6530    12.7100 c2         1 Q8K       0.054000
     25 C1          64.4630    28.9420    14.7410 cd         1 Q8K       0.722200
     26 O1          63.0770    32.1650    17.4670 oh         1 Q8K      -0.598800
     27 C20         62.8890    31.2870    10.5620 cx         1 Q8K       0.133500
     28 C22         61.9030    31.9340     9.6440 cx         1 Q8K      -0.126900
     29 C21         61.4230    31.1380    10.8170 cx         1 Q8K      -0.126900
     30 H1          67.7260    24.7400    13.3880 h4         1 Q8K       0.048800
     31 H2          63.0040    29.7410    12.5670 h4         1 Q8K       0.151000
     32 H3          62.1930    31.2960    15.1500 h1         1 Q8K       0.067200
     33 H4          62.4960    29.9660    16.2420 h1         1 Q8K       0.067200
     34 H5          64.7150    31.0330    16.8570 h1         1 Q8K       0.026700
     35 H6          64.3130    32.3870    15.8030 h1         1 Q8K       0.026700
     36 H7          67.2780    25.1320    10.7280 ha         1 Q8K       0.130000
     37 H8          67.6920    25.9980     8.4700 ha         1 Q8K       0.132000
     38 H9          67.5350    28.4130     7.9890 ha         1 Q8K       0.148000
     39 H10         66.7890    29.1230    12.1410 ha         1 Q8K       0.144000
     40 H11         63.9760    28.6250    16.8800 ha         1 Q8K       0.162000
     41 H12         65.2610    26.5200    17.0120 h4         1 Q8K       0.179000
     42 H13         65.6980    30.4790    11.3480 hn         1 Q8K       0.326500
     43 H14         66.5250    32.7000    11.8230 h1         1 Q8K       0.055200
     44 H15         66.6590    32.9810    10.0970 h1         1 Q8K       0.055200
     45 H16         64.6290    33.9720    11.3270 h1         1 Q8K       0.059700
     46 H17         64.3140    33.1680     9.8000 h1         1 Q8K       0.059700
     47 H18         64.4690    32.3360    13.3380 h4         1 Q8K       0.136000
     48 H19         63.6270    32.7390    18.0070 ho         1 Q8K       0.413000
     49 H20         63.4000    30.4040    10.1780 h1         1 Q8K       0.081700
     50 H21         61.8020    33.0110     9.6940 hc         1 Q8K       0.077950
     51 H22         61.7910    31.5190     8.6510 hc         1 Q8K       0.077950
     52 H23         61.0100    31.6810    11.6580 hc         1 Q8K       0.077950
     53 H24         60.9750    30.1680    10.6420 hc         1 Q8K       0.077950
     54 C8          62.9880    30.7090    15.6080 c3         1 Q8K       0.225800
@<TRIPOS>BOND
     1     1     3 2   
     2     1     4 1   
     3     1     6 1   
     4     2     3 1   
     5     2    11 2   
     6     2    30 1   
     7     3     8 1   
     8     4    25 2   
     9     5    15 1   
    10     5    24 2   
    11     5    31 1   
    12     6    11 1   
    13     6    17 1   
    14     7    26 1   
    15     7    34 1   
    16     7    35 1   
    17     7    54 1   
    18     8     9 ar  
    19     8    14 ar  
    20     9    10 ar  
    21     9    36 1   
    22    10    12 ar  
    23    10    37 1   
    24    12    13 ar  
    25    12    38 1   
    26    13    14 ar  
    27    13    18 1   
    28    14    39 1   
    29    15    25 1   
    30    15    54 1   
    31    16    17 2   
    32    16    25 1   
    33    16    40 1   
    34    17    41 1   
    35    18    19 2   
    36    18    20 1   
    37    20    21 1   
    38    20    42 1   
    39    21    22 1   
    40    21    43 1   
    41    21    44 1   
    42    22    23 1   
    43    22    45 1   
    44    22    46 1   
    45    23    24 1   
    46    23    27 1   
    47    24    47 1   
    48    26    48 1   
    49    27    28 1   
    50    27    29 1   
    51    27    49 1   
    52    28    29 1   
    53    28    50 1   
    54    28    51 1   
    55    29    52 1   
    56    29    53 1   
    57    32    54 1   
    58    33    54 1   
@<TRIPOS>SUBSTRUCTURE
     1 Q8K         1 TEMP              0 ****  ****    0 ROOT
