@<TRIPOS>MOLECULE
Q8K
   54    58     1     0     0
SMALL
No Charge or Current Charge


@<TRIPOS>ATOM
      1 C4          65.5800    27.1860    13.9040 cc         1 Q8K       0.437500
      2 C5          66.8310    25.3690    13.7590 cd         1 Q8K       0.418500
      3 C6          66.5040    26.5920    13.0880 cd         1 Q8K      -0.266800
      4 N1          64.9290    28.3450    13.6600 nc         1 Q8K      -0.758000
      5 C7          63.3610    30.4150    13.0810 c2         1 Q8K      -0.103000
      6 N2          65.4310    26.3190    14.9570 na         1 Q8K       0.088900
      7 C9          64.7840    31.5430    15.9340 c3         1 Q8K       0.139600
      8 C10         67.0910    27.1360    11.8330 ca         1 Q8K       0.012200
      9 C11         67.7550    26.3040    10.9110 ca         1 Q8K      -0.090000
     10 C12         68.2380    26.8320     9.6960 ca         1 Q8K      -0.122000
     11 N3          66.1850    25.1740    14.9130 nc         1 Q8K      -0.582100
     12 C13         68.0490    28.1920     9.3760 ca         1 Q8K      -0.064000
     13 C14         67.3970    29.0460    10.2880 ca         1 Q8K      -0.153600
     14 C15         66.9810    28.5070    11.5200 ca         1 Q8K      -0.083000
     15 N4          63.5070    29.9420    14.4080 nh         1 Q8K      -0.661100
     16 C2          63.8960    27.8690    15.8070 cd         1 Q8K      -0.260000
     17 C3          64.5500    26.6420    15.9940 cc         1 Q8K      -0.009000
     18 C16         67.1470    30.5120     9.9850 c          1 Q8K       0.619700
     19 O2          67.7540    31.1220     9.1150 o          1 Q8K      -0.603100
     20 N5          66.2040    31.1230    10.7920 ns         1 Q8K      -0.510900
     21 C18         65.9010    32.5600    10.8750 c3         1 Q8K       0.072000
     22 C17         64.4040    32.9110    10.6430 c3         1 Q8K       0.199800
     23 N6          63.4000    32.0260    11.2980 nh         1 Q8K      -0.637400
     24 C19         63.4800    31.6900    12.6590 c2         1 Q8K       0.004000
     25 C1          64.1060    28.6830    14.6260 cd         1 Q8K       0.656900
     26 O1          64.6230    32.4550    17.0350 oh         1 Q8K      -0.661000
     27 C20         62.3450    31.3260    10.5350 cx         1 Q8K       0.133500
     28 C22         61.3170    32.1160     9.7600 cx         1 Q8K      -0.126900
     29 C21         60.9050    31.3570    10.9950 cx         1 Q8K      -0.126900
     30 H1          67.5450    24.6210    13.4380 h4         1 Q8K       0.048800
     31 H2          63.1720    29.6210    12.3540 h4         1 Q8K       0.201000
     32 H3          62.6970    31.6760    15.3350 h1         1 Q8K       0.067200
     33 H4          63.0540    30.3690    16.4460 h1         1 Q8K       0.067200
     34 H5          65.4990    30.7530    16.2010 h1         1 Q8K       0.026700
     35 H6          65.1870    32.0730    15.0610 h1         1 Q8K       0.026700
     36 H7          67.8780    25.2440    11.1160 ha         1 Q8K       0.112000
     37 H8          68.7410    26.1790     8.9870 ha         1 Q8K       0.114000
     38 H9          68.4040    28.5770     8.4220 ha         1 Q8K       0.130000
     39 H10         66.6040    29.1930    12.2620 ha         1 Q8K       0.126000
     40 H11         63.1980    28.2030    16.5620 ha         1 Q8K       0.144000
     41 H12         64.4470    25.9600    16.8290 h4         1 Q8K       0.161000
     42 H13         65.6950    30.5140    11.4210 hn         1 Q8K       0.326500
     43 H14         66.1810    32.8970    11.8810 h1         1 Q8K       0.055200
     44 H15         66.5170    33.1180    10.1580 h1         1 Q8K       0.055200
     45 H16         64.2460    33.9450    10.9770 h1         1 Q8K       0.059700
     46 H17         64.2260    32.9040     9.5590 h1         1 Q8K       0.059700
     47 H18         63.7170    32.5180    13.3290 h4         1 Q8K       0.186000
     48 H19         65.5110    32.8320    17.2300 ho         1 Q8K       0.452000
     49 H20         62.6850    30.3930    10.0820 h1         1 Q8K       0.081700
     50 H21         61.3570    33.2000     9.8220 hc         1 Q8K       0.077950
     51 H22         61.0080    31.7250     8.7940 hc         1 Q8K       0.077950
     52 H23         60.6690    31.9310    11.8870 hc         1 Q8K       0.077950
     53 H24         60.3190    30.4510    10.8660 hc         1 Q8K       0.077950
     54 C8          63.4290    30.8870    15.5550 c3         1 Q8K       0.225800
@<TRIPOS>BOND
     1     1     3 2   
     2     1     4 1   
     3     1     6 1   
     4     2     3 1   
     5     2    11 2   
     6     2    30 1   
     7     3     8 1   
     8     4    25 2   
     9     5    15 1   
    10     5    24 2   
    11     5    31 1   
    12     6    11 1   
    13     6    17 1   
    14     7    26 1   
    15     7    34 1   
    16     7    35 1   
    17     7    54 1   
    18     8     9 ar  
    19     8    14 ar  
    20     9    10 ar  
    21     9    36 1   
    22    10    12 ar  
    23    10    37 1   
    24    12    13 ar  
    25    12    38 1   
    26    13    14 ar  
    27    13    18 1   
    28    14    39 1   
    29    15    25 1   
    30    15    54 1   
    31    16    17 2   
    32    16    25 1   
    33    16    40 1   
    34    17    41 1   
    35    18    19 2   
    36    18    20 1   
    37    20    21 1   
    38    20    42 1   
    39    21    22 1   
    40    21    43 1   
    41    21    44 1   
    42    22    23 1   
    43    22    45 1   
    44    22    46 1   
    45    23    24 1   
    46    23    27 1   
    47    24    47 1   
    48    26    48 1   
    49    27    28 1   
    50    27    29 1   
    51    27    49 1   
    52    28    29 1   
    53    28    50 1   
    54    28    51 1   
    55    29    52 1   
    56    29    53 1   
    57    32    54 1   
    58    33    54 1   
@<TRIPOS>SUBSTRUCTURE
     1 Q8K         1 TEMP              0 ****  ****    0 ROOT
