@<TRIPOS>MOLECULE
Q8L
   48    51     1     0     0
SMALL
No Charge or Current Charge


@<TRIPOS>ATOM
      1 O1         -35.2590     0.0580    12.2720 oh         1 Q8L      -0.673000
      2 C7         -30.3170     1.4810    12.8170 ca         1 Q8L      -0.080600
      3 O2         -32.5220    -3.2250    14.1620 o          1 Q8L      -0.599100
      4 C2         -34.1870    -1.7350    15.3010 c5         1 Q8L       0.051300
      5 C3         -33.5230    -3.0810    14.8530 c          1 Q8L       0.580100
      6 C4         -33.8120    -5.5470    15.2370 c3         1 Q8L       0.094300
      7 C5         -33.4380     0.1150    14.0200 c5         1 Q8L       0.320300
      8 C6         -31.4010    -0.3720    12.5690 cc         1 Q8L       0.425700
      9 C1         -34.4430    -0.7260    13.1550 c5         1 Q8L       0.135300
     10 C8         -31.4420     1.6030    13.5980 ca         1 Q8L       0.138500
     11 O3         -33.2340    -0.6320    15.2440 os         1 Q8L      -0.426000
     12 C9         -30.7630     3.6780    14.2700 ca         1 Q8L       0.173900
     13 C10        -29.4020     2.5660    12.7920 ca         1 Q8L       0.435900
     14 C11        -28.0490     2.0710    10.6920 c3         1 Q8L       0.282100
     15 N          -34.1920    -4.1440    15.4240 ns         1 Q8L      -0.504900
     16 C          -35.3090    -1.3570    14.2800 c5         1 Q8L       0.109300
     17 O          -36.2380    -0.3910    14.8090 oh         1 Q8L      -0.684000
     18 C12        -28.9490     2.8210     9.7160 ca         1 Q8L      -0.098300
     19 C13        -30.1670     2.2540     9.2860 ca         1 Q8L      -0.066000
     20 C14        -31.0030     2.9560     8.4050 ca         1 Q8L       0.205000
     21 C15        -30.6310     4.2260     7.9370 ca         1 Q8L      -0.084000
     22 C16        -29.4170     4.7970     8.3550 ca         1 Q8L      -0.110000
     23 C17        -28.5790     4.0970     9.2430 ca         1 Q8L      -0.087000
     24 I          -32.8780     2.0750     7.7700 i          1 Q8L      -0.327000
     25 N1         -32.1370     0.4390    13.4370 na         1 Q8L      -0.302300
     26 N2         -30.2720     0.2390    12.1680 nd         1 Q8L      -0.557100
     27 N3         -31.6940     2.7000    14.3380 nb         1 Q8L      -0.211000
     28 N4         -29.6260     3.6640    13.5360 nb         1 Q8L      -0.301000
     29 N5         -28.2230     2.6030    12.0540 nu         1 Q8L      -0.919100
     30 H1         -36.0320     0.3190    12.8320 ho         1 Q8L       0.511000
     31 H2         -34.5600    -1.8440    16.3270 h1         1 Q8L       0.078700
     32 H3         -34.5090    -6.1940    15.7850 h1         1 Q8L       0.047033
     33 H4         -33.8470    -5.8000    14.1690 h1         1 Q8L       0.047033
     34 H5         -32.7950    -5.7080    15.6160 h1         1 Q8L       0.047033
     35 H6         -33.9100     1.0740    14.2720 h2         1 Q8L       0.127700
     36 H7         -31.7240    -1.3650    12.2780 h5         1 Q8L       0.096800
     37 H8         -33.9200    -1.5070    12.5890 h1         1 Q8L       0.068700
     38 H9         -30.9480     4.5690    14.8670 h5         1 Q8L       0.047100
     39 H10        -28.2700     0.9950    10.6580 h1         1 Q8L       0.070700
     40 H11        -27.0040     2.1890    10.3730 h1         1 Q8L       0.070700
     41 H12        -34.9950    -3.9350    16.0090 hn         1 Q8L       0.315500
     42 H13        -35.8460    -2.2460    13.9190 h1         1 Q8L       0.058700
     43 H14        -36.7680    -0.8350    15.5130 ho         1 Q8L       0.502000
     44 H15        -30.4710     1.2720     9.6360 ha         1 Q8L       0.127000
     45 H16        -31.2830     4.7650     7.2540 ha         1 Q8L       0.125000
     46 H17        -29.1260     5.7820     7.9960 ha         1 Q8L       0.116000
     47 H18        -27.6440     4.5490     9.5670 ha         1 Q8L       0.119000
     48 H19        -27.6570     3.4230    12.2710 hn         1 Q8L       0.503000
@<TRIPOS>BOND
     1     1     9 1   
     2     1    30 1   
     3     2    10 ar  
     4     2    13 ar  
     5     2    26 1   
     6     3     5 2   
     7     4     5 1   
     8     4    11 1   
     9     4    16 1   
    10     4    31 1   
    11     5    15 1   
    12     6    15 1   
    13     6    32 1   
    14     6    33 1   
    15     6    34 1   
    16     7     9 1   
    17     7    11 1   
    18     7    25 1   
    19     7    35 1   
    20     8    25 1   
    21     8    26 2   
    22     8    36 1   
    23     9    16 1   
    24     9    37 1   
    25    10    25 1   
    26    10    27 ar  
    27    12    27 ar  
    28    12    28 ar  
    29    12    38 1   
    30    13    28 ar  
    31    13    29 1   
    32    14    18 1   
    33    14    29 1   
    34    14    39 1   
    35    14    40 1   
    36    15    41 1   
    37    16    17 1   
    38    16    42 1   
    39    17    43 1   
    40    18    19 ar  
    41    18    23 ar  
    42    19    20 ar  
    43    19    44 1   
    44    20    21 ar  
    45    20    24 1   
    46    21    22 ar  
    47    21    45 1   
    48    22    23 ar  
    49    22    46 1   
    50    23    47 1   
    51    29    48 1   
@<TRIPOS>SUBSTRUCTURE
     1 Q8L         1 TEMP              0 ****  ****    0 ROOT
