@<TRIPOS>MOLECULE
Q8L
   48    51     1     0     0
SMALL
abcg2


@<TRIPOS>ATOM
      1 O1         -34.8970     1.5200    13.9820 oh         1 Q8L      -0.673000
      2 C7         -30.2400     1.9270    13.0200 ca         1 Q8L      -0.080600
      3 O2         -33.0840    -2.6440    13.1180 o          1 Q8L      -0.599100
      4 C2         -33.8850    -1.7680    15.2260 c5         1 Q8L       0.051300
      5 C3         -33.7260    -2.8450    14.1490 c          1 Q8L       0.580100
      6 C4         -34.4450    -5.0730    13.4350 c3         1 Q8L       0.094300
      7 C5         -32.9670     0.3450    14.7980 c5         1 Q8L       0.320300
      8 C6         -31.2710     0.0490    12.9450 cc         1 Q8L       0.425700
      9 C1         -34.3060     0.2450    14.0630 c5         1 Q8L       0.135300
     10 C8         -31.2100     1.9720    14.0280 ca         1 Q8L       0.138500
     11 O3         -32.7100    -0.9540    15.3100 os         1 Q8L      -0.426000
     12 C9         -30.6230     4.0130    14.6410 ca         1 Q8L       0.173900
     13 C10        -29.4390     3.0790    12.8790 ca         1 Q8L       0.435900
     14 C11        -28.1400     2.3270    10.8970 c3         1 Q8L       0.282100
     15 N          -34.3830    -3.9840    14.3970 ns         1 Q8L      -0.504900
     16 C          -35.0450    -0.8050    14.9010 c5         1 Q8L       0.109300
     17 O          -35.5450    -0.1800    16.0700 oh         1 Q8L      -0.684000
     18 C12        -29.1500     2.3040     9.7650 ca         1 Q8L      -0.098300
     19 C13        -29.1460     1.2140     8.8930 ca         1 Q8L      -0.066000
     20 C14        -30.0510     1.1720     7.8430 ca         1 Q8L       0.205000
     21 C15        -30.9700     2.1940     7.6330 ca         1 Q8L      -0.084000
     22 C16        -30.9670     3.2750     8.5080 ca         1 Q8L      -0.110000
     23 C17        -30.0650     3.3320     9.5650 ca         1 Q8L      -0.087000
     24 I          -30.0450    -0.4980     6.5390 i          1 Q8L      -0.327000
     25 N1         -31.8630     0.7630    13.9660 na         1 Q8L      -0.302300
     26 N2         -30.2990     0.7030    12.3630 nd         1 Q8L      -0.557100
     27 N3         -31.4420     2.9870    14.8650 nb         1 Q8L      -0.211000
     28 N4         -29.6670     4.1140    13.7180 nb         1 Q8L      -0.301000
     29 N5         -28.4520     3.2390    11.9760 nu         1 Q8L      -0.919100
     30 H1         -35.5780     1.5040    13.2990 ho         1 Q8L       0.511000
     31 H2         -34.0450    -2.2360    16.1990 h1         1 Q8L       0.078700
     32 H3         -35.0600    -5.8660    13.8530 h1         1 Q8L       0.047033
     33 H4         -34.8850    -4.7330    12.4960 h1         1 Q8L       0.047033
     34 H5         -33.4480    -5.4640    13.2280 h1         1 Q8L       0.047033
     35 H6         -33.0380     1.0760    15.6050 h2         1 Q8L       0.127700
     36 H7         -31.6090    -0.9470    12.7070 h5         1 Q8L       0.096800
     37 H8         -34.1330    -0.1760    13.0710 h1         1 Q8L       0.068700
     38 H9         -30.7500     4.8780    15.2840 h5         1 Q8L       0.047100
     39 H10        -28.0290     1.3170    11.2910 h1         1 Q8L       0.070700
     40 H11        -27.1660     2.6270    10.5050 h1         1 Q8L       0.070700
     41 H12        -34.8700    -4.0890    15.2730 hn         1 Q8L       0.315500
     42 H13        -35.8430    -1.2980    14.3430 h1         1 Q8L       0.058700
     43 H14        -36.0250    -0.8400    16.5880 ho         1 Q8L       0.502000
     44 H15        -28.4460     0.4040     9.0510 ha         1 Q8L       0.127000
     45 H16        -31.6750     2.1510     6.8160 ha         1 Q8L       0.125000
     46 H17        -31.6790     4.0790     8.3610 ha         1 Q8L       0.116000
     47 H18        -30.0810     4.1770    10.2400 ha         1 Q8L       0.119000
     48 H19        -28.0250     4.1530    11.9680 hn         1 Q8L       0.503000
@<TRIPOS>BOND
     1     1     9 1   
     2     1    30 1   
     3     2    10 ar  
     4     2    13 ar  
     5     2    26 1   
     6     3     5 2   
     7     4     5 1   
     8     4    11 1   
     9     4    16 1   
    10     4    31 1   
    11     5    15 1   
    12     6    15 1   
    13     6    32 1   
    14     6    33 1   
    15     6    34 1   
    16     7     9 1   
    17     7    11 1   
    18     7    25 1   
    19     7    35 1   
    20     8    25 1   
    21     8    26 2   
    22     8    36 1   
    23     9    16 1   
    24     9    37 1   
    25    10    25 1   
    26    10    27 ar  
    27    12    27 ar  
    28    12    28 ar  
    29    12    38 1   
    30    13    28 ar  
    31    13    29 1   
    32    14    18 1   
    33    14    29 1   
    34    14    39 1   
    35    14    40 1   
    36    15    41 1   
    37    16    17 1   
    38    16    42 1   
    39    17    43 1   
    40    18    19 ar  
    41    18    23 ar  
    42    19    20 ar  
    43    19    44 1   
    44    20    21 ar  
    45    20    24 1   
    46    21    22 ar  
    47    21    45 1   
    48    22    23 ar  
    49    22    46 1   
    50    23    47 1   
    51    29    48 1   
@<TRIPOS>SUBSTRUCTURE
     1 Q8L         1 TEMP              0 ****  ****    0 ROOT
