@<TRIPOS>MOLECULE
Q8N
   40    42     1     0     0
SMALL
abcg2


@<TRIPOS>ATOM
      1 N12          7.4080   -10.2860    -9.4410 nb         1 Q8N      -0.298000
      2 C13          6.5700    -9.2180    -9.4490 ca         1 Q8N       0.436900
      3 C20         11.3580   -14.9060    -6.1150 cc         1 Q8N       0.219900
      4 C21         10.4840   -14.6270    -5.0940 cd         1 Q8N      -0.211000
      5 C02          2.8750   -10.2550    -3.4170 ca         1 Q8N      -0.046300
      6 C03          3.2770    -9.7160    -4.6330 ca         1 Q8N      -0.164000
      7 C04          4.4110   -10.1890    -5.3080 ca         1 Q8N       0.318000
      8 C05          5.1590   -11.2240    -4.7420 ca         1 Q8N      -0.137000
      9 C06          4.7570   -11.7620    -3.5240 ca         1 Q8N      -0.086000
     10 C07          3.6310   -11.2920    -2.8620 ca         1 Q8N      -0.136000
     11 C09          5.6410    -9.8250    -7.4780 ca         1 Q8N       0.439900
     12 C11          7.2790   -11.0780    -8.3870 ca         1 Q8N       0.223300
     13 C16          8.2020   -12.2540    -8.2980 c3         1 Q8N       0.005300
     14 C18         10.3090   -13.1170    -6.6880 cd         1 Q8N       0.456800
     15 N08          4.7250    -9.5480    -6.5160 nu         1 Q8N      -0.924900
     16 N10          6.4240   -10.9120    -7.3770 nb         1 Q8N      -0.307000
     17 N14          5.6760    -8.9490    -8.4930 nb         1 Q8N      -0.355000
     18 N15          6.6520    -8.3860   -10.4950 nv         1 Q8N      -1.065900
     19 N19         11.2410   -13.9640    -7.1030 nc         1 Q8N      -0.619000
     20 N22          9.8260   -13.4830    -5.4580 na         1 Q8N      -0.147500
     21 S17          9.7970   -11.6810    -7.5430 ss         1 Q8N      -0.322300
     22 H201        12.0580   -15.7230    -6.1870 h4         1 Q8N       0.041100
     23 H211        10.2780   -15.1250    -4.1620 h4         1 Q8N       0.156000
     24 H012         0.7900   -10.4200    -2.9140 hc         1 Q8N       0.044700
     25 H013         1.7800    -9.7050    -1.6470 hc         1 Q8N       0.044700
     26 H011         1.3590    -8.7590    -3.0840 hc         1 Q8N       0.044700
     27 H031         2.7030    -8.9080    -5.0740 ha         1 Q8N       0.111000
     28 H051         6.0330   -11.5940    -5.2490 ha         1 Q8N       0.145000
     29 H061         5.3440   -12.5610    -3.0870 ha         1 Q8N       0.109000
     30 H071         3.3380   -11.7220    -1.9120 ha         1 Q8N       0.114000
     31 H161         7.7810   -13.0140    -7.6470 h1         1 Q8N       0.093700
     32 H162         8.4150   -12.6610    -9.2830 h1         1 Q8N       0.093700
     33 H233         8.9350   -13.0210    -3.6370 h1         1 Q8N       0.062033
     34 H232         8.7860   -11.7690    -4.8910 h1         1 Q8N       0.062033
     35 H231         7.7940   -13.2360    -4.9830 h1         1 Q8N       0.062033
     36 H081         4.1650    -8.7350    -6.7300 hn         1 Q8N       0.510000
     37 H151         7.3360    -8.5500   -11.2140 hn         1 Q8N       0.512000
     38 H152         6.0720    -7.5650   -10.5360 hn         1 Q8N       0.512000
     39 C23          8.7680   -12.8380    -4.6960 c3         1 Q8N       0.049900
     40 C01          1.6360    -9.7510    -2.7270 c3         1 Q8N      -0.047800
@<TRIPOS>BOND
     1     1     2 ar  
     2     1    12 ar  
     3     2    17 ar  
     4     2    18 1   
     5     3     4 2   
     6     3    19 1   
     7     3    22 1   
     8     4    20 1   
     9     4    23 1   
    10     5     6 ar  
    11     5    10 ar  
    12     5    40 1   
    13     6     7 ar  
    14     6    27 1   
    15     7     8 ar  
    16     7    15 1   
    17     8     9 ar  
    18     8    28 1   
    19     9    10 ar  
    20     9    29 1   
    21    10    30 1   
    22    11    15 1   
    23    11    16 ar  
    24    11    17 ar  
    25    12    13 1   
    26    12    16 ar  
    27    13    21 1   
    28    13    31 1   
    29    13    32 1   
    30    14    19 2   
    31    14    20 1   
    32    14    21 1   
    33    15    36 1   
    34    18    37 1   
    35    18    38 1   
    36    20    39 1   
    37    24    40 1   
    38    25    40 1   
    39    26    40 1   
    40    33    39 1   
    41    34    39 1   
    42    35    39 1   
@<TRIPOS>SUBSTRUCTURE
     1 Q8N         1 TEMP              0 ****  ****    0 ROOT
