@<TRIPOS>MOLECULE
Q8N
   40    42     1     0     0
SMALL
No Charge or Current Charge


@<TRIPOS>ATOM
      1 N12          7.3580   -10.4140    -9.2390 nb         1 Q8N      -0.298000
      2 C13          6.4980    -9.4000    -9.3930 ca         1 Q8N       0.436900
      3 C20         12.0980   -14.6540    -6.5770 cc         1 Q8N       0.219900
      4 C21         11.0700   -15.2190    -5.8590 cd         1 Q8N      -0.211000
      5 C02          2.5780    -9.8210    -3.3920 ca         1 Q8N      -0.046300
      6 C03          2.9540    -9.4820    -4.7060 ca         1 Q8N      -0.164000
      7 C04          4.2680    -9.6920    -5.1580 ca         1 Q8N       0.318000
      8 C05          5.2210   -10.2270    -4.2690 ca         1 Q8N      -0.137000
      9 C06          4.8550   -10.5700    -2.9560 ca         1 Q8N      -0.086000
     10 C07          3.5350   -10.3720    -2.5210 ca         1 Q8N      -0.136000
     11 C09          5.5440    -9.7150    -7.3860 ca         1 Q8N       0.439900
     12 C11          7.2350   -11.0690    -8.0650 ca         1 Q8N       0.223300
     13 C16          8.1740   -12.2340    -7.8000 c3         1 Q8N       0.005300
     14 C18         10.5480   -13.2090    -6.5960 cd         1 Q8N       0.456800
     15 N08          4.5850    -9.3250    -6.4700 nu         1 Q8N      -0.924900
     16 N10          6.3400   -10.7610    -7.1040 nb         1 Q8N      -0.307000
     17 N14          5.5720    -8.9980    -8.5170 nb         1 Q8N      -0.355000
     18 N15          6.5710    -8.7080   -10.5480 nv         1 Q8N      -1.065900
     19 N19         11.7800   -13.3990    -7.0200 nc         1 Q8N      -0.619000
     20 N22         10.0600   -14.2700    -5.8500 na         1 Q8N      -0.147500
     21 S17          9.6550   -11.7030    -6.8190 ss         1 Q8N      -0.322300
     22 H201        13.0690   -15.0790    -6.7970 h4         1 Q8N       0.041100
     23 H211        11.0000   -16.1810    -5.3660 h4         1 Q8N       0.156000
     24 H012         0.5250   -10.4740    -3.1490 hc         1 Q8N       0.044700
     25 H013         1.1040    -9.4290    -1.8400 hc         1 Q8N       0.044700
     26 H011         0.6970    -8.7300    -3.4110 hc         1 Q8N       0.044700
     27 H031         2.2140    -9.0620    -5.3820 ha         1 Q8N       0.111000
     28 H051         6.2510   -10.3640    -4.5790 ha         1 Q8N       0.145000
     29 H061         5.5960   -10.9840    -2.2750 ha         1 Q8N       0.109000
     30 H071         3.2580   -10.6400    -1.5030 ha         1 Q8N       0.114000
     31 H161         7.6290   -13.0150    -7.2550 h1         1 Q8N       0.093700
     32 H162         8.5110   -12.6630    -8.7520 h1         1 Q8N       0.093700
     33 H233         8.8890   -15.0250    -4.2660 h1         1 Q8N       0.062033
     34 H232         8.4510   -13.3790    -4.8000 h1         1 Q8N       0.062033
     35 H231         8.0170   -14.7960    -5.8070 h1         1 Q8N       0.062033
     36 H081         3.9180    -8.6740    -6.8830 hn         1 Q8N       0.510000
     37 H151         7.4070    -8.8200   -11.1170 hn         1 Q8N       0.512000
     38 H152         6.1130    -7.8010   -10.5930 hn         1 Q8N       0.512000
     39 C23          8.7750   -14.3710    -5.1390 c3         1 Q8N       0.049900
     40 C01          1.1490    -9.6010    -2.9220 c3         1 Q8N      -0.047800
@<TRIPOS>BOND
     1     1     2 ar  
     2     1    12 ar  
     3     2    17 ar  
     4     2    18 1   
     5     3     4 2   
     6     3    19 1   
     7     3    22 1   
     8     4    20 1   
     9     4    23 1   
    10     5     6 ar  
    11     5    10 ar  
    12     5    40 1   
    13     6     7 ar  
    14     6    27 1   
    15     7     8 ar  
    16     7    15 1   
    17     8     9 ar  
    18     8    28 1   
    19     9    10 ar  
    20     9    29 1   
    21    10    30 1   
    22    11    15 1   
    23    11    16 ar  
    24    11    17 ar  
    25    12    13 1   
    26    12    16 ar  
    27    13    21 1   
    28    13    31 1   
    29    13    32 1   
    30    14    19 2   
    31    14    20 1   
    32    14    21 1   
    33    15    36 1   
    34    18    37 1   
    35    18    38 1   
    36    20    39 1   
    37    24    40 1   
    38    25    40 1   
    39    26    40 1   
    40    33    39 1   
    41    34    39 1   
    42    35    39 1   
@<TRIPOS>SUBSTRUCTURE
     1 Q8N         1 TEMP              0 ****  ****    0 ROOT
