@<TRIPOS>MOLECULE
Q8O
   34    36     1     0     0
SMALL
abcg2


@<TRIPOS>ATOM
      1 N1           8.6270    -0.3720    21.3220 ns         1 Q8O      -0.143000
      2 N3           9.0090    -4.8850    24.2790 na         1 Q8O      -0.323600
      3 C4           7.7720     0.7650    19.3140 ca         1 Q8O       0.318900
      4 C5           7.5790     0.0040    20.4700 ca         1 Q8O      -0.074000
      5 C6           9.8860     0.1320    21.4200 c          1 Q8O       0.603100
      6 C7          10.7610    -0.5130    22.4960 c3         1 Q8O      -0.116100
      7 C8          10.0550    -1.4020    23.4850 ca         1 Q8O      -0.087300
      8 C10          8.6640    -1.5810    25.4910 ca         1 Q8O      -0.045000
      9 C13          9.2700    -3.5350    24.1860 ca         1 Q8O      -0.084200
     10 O           10.3280     1.0270    20.7090 o          1 Q8O      -0.585100
     11 N            6.7760     1.1170    18.4970 nb         1 Q8O      -0.644000
     12 C3           5.5430     0.7120    18.8040 ca         1 Q8O       0.309900
     13 C2           5.2590    -0.0530    19.9270 ca         1 Q8O      -0.141000
     14 C1           6.2790    -0.4260    20.7930 ca         1 Q8O      -0.091300
     15 C            6.0050    -1.2460    22.0200 c3         1 Q8O      -0.053800
     16 C14         10.0010    -2.7760    23.2770 ca         1 Q8O      -0.109000
     17 C12          8.2270    -5.0700    25.3800 cc         1 Q8O       0.425700
     18 N2           7.9560    -3.9540    26.0150 nd         1 Q8O      -0.571100
     19 C11          8.6000    -2.9610    25.2870 ca         1 Q8O       0.069400
     20 C9           9.3900    -0.8230    24.5880 ca         1 Q8O      -0.131000
     21 H1           8.4010    -1.0820    22.0030 hn         1 Q8O       0.162000
     22 H3           8.7650     1.0980    19.0530 h4         1 Q8O       0.051100
     23 H4          11.5300    -1.0720    21.9570 hc         1 Q8O       0.083700
     24 H5          11.2660     0.3120    23.0000 hc         1 Q8O       0.083700
     25 H6           8.1610    -1.1200    26.3310 ha         1 Q8O       0.136000
     26 H7           4.7480     1.0070    18.1270 h4         1 Q8O       0.021100
     27 H8           4.2410    -0.3570    20.1330 ha         1 Q8O       0.120000
     28 H9           6.5200    -2.2100    21.9800 hc         1 Q8O       0.048033
     29 H10          6.3500    -0.7340    22.9220 hc         1 Q8O       0.048033
     30 H11          4.9380    -1.4380    22.1210 hc         1 Q8O       0.048033
     31 H12         10.5030    -3.2320    22.4330 ha         1 Q8O       0.122000
     32 H13          7.8850    -6.0520    25.6680 h5         1 Q8O       0.066800
     33 H15          9.4490     0.2510    24.7190 ha         1 Q8O       0.122000
     34 H2           9.3330    -5.6070    23.6540 hn         1 Q8O       0.361000
@<TRIPOS>BOND
     1     1     4 1   
     2     1     5 1   
     3     1    21 1   
     4     2     9 1   
     5     2    17 1   
     6     2    34 1   
     7     3     4 ar  
     8     3    11 ar  
     9     3    22 1   
    10     4    14 ar  
    11     5     6 1   
    12     5    10 2   
    13     6     7 1   
    14     6    23 1   
    15     6    24 1   
    16     7    16 ar  
    17     7    20 ar  
    18     8    19 ar  
    19     8    20 ar  
    20     8    25 1   
    21     9    16 ar  
    22     9    19 ar  
    23    11    12 ar  
    24    12    13 ar  
    25    12    26 1   
    26    13    14 ar  
    27    13    27 1   
    28    14    15 1   
    29    15    28 1   
    30    15    29 1   
    31    15    30 1   
    32    16    31 1   
    33    17    18 2   
    34    17    32 1   
    35    18    19 1   
    36    20    33 1   
@<TRIPOS>SUBSTRUCTURE
     1 Q8O         1 TEMP              0 ****  ****    0 ROOT
