@<TRIPOS>MOLECULE
Q8O
   34    36     1     0     0
SMALL
No Charge or Current Charge


@<TRIPOS>ATOM
      1 N1           8.4010    -0.6520    20.8910 ns         1 Q8O      -0.143000
      2 N3           8.1400    -4.0190    25.6610 na         1 Q8O      -0.323600
      3 C4           7.1300     1.3840    20.1830 ca         1 Q8O       0.318900
      4 C5           7.2920    -0.0250    20.2480 ca         1 Q8O      -0.074000
      5 C6           9.4300    -0.1450    21.6740 c          1 Q8O       0.603100
      6 C7          10.4300    -1.2000    22.1630 c3         1 Q8O      -0.116100
      7 C8          10.1060    -1.6310    23.5900 ca         1 Q8O      -0.087300
      8 C10         10.3960    -1.3410    26.0170 ca         1 Q8O      -0.045000
      9 C13          8.9460    -3.0480    25.1520 ca         1 Q8O      -0.084200
     10 O            9.5370     1.0360    21.9840 o          1 Q8O      -0.585100
     11 N            6.0830     1.9870    19.5710 nb         1 Q8O      -0.644000
     12 C3           5.1500     1.1990    18.9950 ca         1 Q8O       0.309900
     13 C2           5.2260    -0.2030    19.0030 ca         1 Q8O      -0.141000
     14 C1           6.3100    -0.8380    19.6360 ca         1 Q8O      -0.091300
     15 C            6.4010    -2.3610    19.6530 c3         1 Q8O      -0.053800
     16 C14          9.2120    -2.7000    23.8220 ca         1 Q8O      -0.109000
     17 C12          8.2320    -3.9410    27.0500 cc         1 Q8O       0.425700
     18 N2           9.0720    -2.9500    27.4220 nd         1 Q8O      -0.571100
     19 C11          9.5060    -2.4050    26.2160 ca         1 Q8O       0.069400
     20 C9          10.6940    -0.9550    24.6900 ca         1 Q8O      -0.131000
     21 H1           8.4420    -1.6530    20.7520 hn         1 Q8O       0.162000
     22 H3           7.8560     2.0650    20.6200 h4         1 Q8O       0.051100
     23 H4          10.3860    -2.0790    21.5090 hc         1 Q8O       0.083700
     24 H5          11.4370    -0.7710    22.1250 hc         1 Q8O       0.083700
     25 H6          10.8430    -0.8260    26.8630 ha         1 Q8O       0.136000
     26 H7           4.3170     1.7070    18.5090 h4         1 Q8O       0.021100
     27 H8           4.4440    -0.7820    18.5200 ha         1 Q8O       0.120000
     28 H9           7.3060    -2.7090    19.1380 hc         1 Q8O       0.048033
     29 H10          6.4270    -2.7440    20.6800 hc         1 Q8O       0.048033
     30 H11          5.5430    -2.8240    19.1520 hc         1 Q8O       0.048033
     31 H12          8.7430    -3.2380    23.0010 ha         1 Q8O       0.122000
     32 H13          7.6860    -4.6060    27.7090 h5         1 Q8O       0.066800
     33 H15         11.3790    -0.1280    24.5190 ha         1 Q8O       0.122000
     34 H2           7.5740    -4.6800    25.1450 hn         1 Q8O       0.361000
@<TRIPOS>BOND
     1     1     4 1   
     2     1     5 1   
     3     1    21 1   
     4     2     9 1   
     5     2    17 1   
     6     2    34 1   
     7     3     4 ar  
     8     3    11 ar  
     9     3    22 1   
    10     4    14 ar  
    11     5     6 1   
    12     5    10 2   
    13     6     7 1   
    14     6    23 1   
    15     6    24 1   
    16     7    16 ar  
    17     7    20 ar  
    18     8    19 ar  
    19     8    20 ar  
    20     8    25 1   
    21     9    16 ar  
    22     9    19 ar  
    23    11    12 ar  
    24    12    13 ar  
    25    12    26 1   
    26    13    14 ar  
    27    13    27 1   
    28    14    15 1   
    29    15    28 1   
    30    15    29 1   
    31    15    30 1   
    32    16    31 1   
    33    17    18 2   
    34    17    32 1   
    35    18    19 1   
    36    20    33 1   
@<TRIPOS>SUBSTRUCTURE
     1 Q8O         1 TEMP              0 ****  ****    0 ROOT
