@<TRIPOS>MOLECULE
Q8Q
   45    48     1     0     0
SMALL
abcg2


@<TRIPOS>ATOM
      1 C4          66.4810    27.3390    13.6800 cc         1 Q8Q       0.443500
      2 C5          68.1100    25.8650    13.8640 cd         1 Q8Q       0.413500
      3 C6          67.5350    26.7770    12.9570 cd         1 Q8Q      -0.257800
      4 N1          65.5530    28.2500    13.3660 nc         1 Q8Q      -0.759000
      5 C7          63.4900    29.9640    12.6460 c3         1 Q8Q       0.226800
      6 C8          64.3580    31.1830    12.3320 c3         1 Q8Q       0.161800
      7 N2          66.5230    26.7410    14.9180 na         1 Q8Q       0.081900
      8 C9          65.4550    32.3340    10.4740 c3         1 Q8Q       0.154800
      9 C10         66.0850    31.8030     9.1900 c3         1 Q8Q       0.104000
     10 C11         67.9640    27.0860    11.6000 ca         1 Q8Q       0.009200
     11 C12         68.7850    26.2110    10.8840 ca         1 Q8Q      -0.098000
     12 N3          67.5130    25.8410    15.0390 nc         1 Q8Q      -0.580100
     13 C13         69.2390    26.5390     9.6150 ca         1 Q8Q      -0.121000
     14 C14         68.8880    27.7460     9.0290 ca         1 Q8Q      -0.066000
     15 C15         68.0500    28.6200     9.7150 ca         1 Q8Q      -0.148600
     16 N4          63.6980    29.4480    13.9780 nu         1 Q8Q      -0.932100
     17 C2          64.6990    28.0050    15.6070 cd         1 Q8Q      -0.272000
     18 C3          65.6390    27.0800    15.8870 cc         1 Q8Q       0.001000
     19 C16         67.5990    28.2880    10.9880 ca         1 Q8Q      -0.082000
     20 C17         67.7230    29.9470     9.1020 c          1 Q8Q       0.615700
     21 O1          68.5190    30.5130     8.3620 o          1 Q8Q      -0.615100
     22 N6          66.5270    30.4500     9.4330 ns         1 Q8Q      -0.501900
     23 N5          64.3890    31.4450    10.9080 n3         1 Q8Q      -0.757600
     24 C1          64.6680    28.5740    14.2860 cd         1 Q8Q       0.652900
     25 C18         63.1060    31.8300    10.3570 c3         1 Q8Q       0.159100
     26 H1          68.9660    25.2270    13.6960 h4         1 Q8Q       0.048800
     27 H2          62.4300    30.2020    12.5600 h1         1 Q8Q       0.062700
     28 H3          63.7120    29.1820    11.9170 h1         1 Q8Q       0.062700
     29 H4          65.3770    30.9650    12.6560 h1         1 Q8Q       0.041700
     30 H5          64.0090    32.0480    12.9200 h1         1 Q8Q       0.041700
     31 H6          66.2290    32.3800    11.2430 h1         1 Q8Q       0.043700
     32 H7          65.1050    33.3630    10.3200 h1         1 Q8Q       0.043700
     33 H8          66.9340    32.4200     8.8980 h1         1 Q8Q       0.055200
     34 H9          65.3660    31.8320     8.3660 h1         1 Q8Q       0.055200
     35 H10         69.0760    25.2620    11.3180 ha         1 Q8Q       0.108000
     36 H11         69.8760    25.8460     9.0810 ha         1 Q8Q       0.113000
     37 H12         69.2570    28.0010     8.0440 ha         1 Q8Q       0.131000
     38 H13         63.0280    29.6810    14.6910 hn         1 Q8Q       0.499000
     39 H14         63.9780    28.2940    16.3580 ha         1 Q8Q       0.138000
     40 H15         65.7390    26.5820    16.8400 h4         1 Q8Q       0.162000
     41 H16         66.9830    28.9830    11.5430 ha         1 Q8Q       0.131000
     42 H17         65.8780    29.8970     9.9730 hn         1 Q8Q       0.336500
     43 H19         62.3700    31.0350    10.4730 h1         1 Q8Q       0.031033
     44 H20         62.6990    32.7410    10.8210 h1         1 Q8Q       0.031033
     45 H21         63.2030    32.0170     9.2870 h1         1 Q8Q       0.031033
@<TRIPOS>BOND
     1     1     3 2   
     2     1     4 1   
     3     1     7 1   
     4     2     3 1   
     5     2    12 2   
     6     2    26 1   
     7     3    10 1   
     8     4    24 2   
     9     5     6 1   
    10     5    16 1   
    11     5    27 1   
    12     5    28 1   
    13     6    23 1   
    14     6    29 1   
    15     6    30 1   
    16     7    12 1   
    17     7    18 1   
    18     8     9 1   
    19     8    23 1   
    20     8    31 1   
    21     8    32 1   
    22     9    22 1   
    23     9    33 1   
    24     9    34 1   
    25    10    11 ar  
    26    10    19 ar  
    27    11    13 ar  
    28    11    35 1   
    29    13    14 ar  
    30    13    36 1   
    31    14    15 ar  
    32    14    37 1   
    33    15    19 ar  
    34    15    20 1   
    35    16    24 1   
    36    16    38 1   
    37    17    18 2   
    38    17    24 1   
    39    17    39 1   
    40    18    40 1   
    41    19    41 1   
    42    20    21 2   
    43    20    22 1   
    44    22    42 1   
    45    23    25 1   
    46    25    43 1   
    47    25    44 1   
    48    25    45 1   
@<TRIPOS>SUBSTRUCTURE
     1 Q8Q         1 TEMP              0 ****  ****    0 ROOT
