@<TRIPOS>MOLECULE
Q8Q
   45    48     1     0     0
SMALL
No Charge or Current Charge


@<TRIPOS>ATOM
      1 C4          66.4490    27.2860    13.7260 cc         1 Q8Q       0.443500
      2 C5          68.0070    25.7070    13.8150 cd         1 Q8Q       0.413500
      3 C6          67.4530    26.7240    12.9690 cd         1 Q8Q      -0.257800
      4 N1          65.5890    28.2880    13.3700 nc         1 Q8Q      -0.759000
      5 C7          63.4580    30.0730    12.7750 c3         1 Q8Q       0.226800
      6 C8          64.3390    31.2740    12.3180 c3         1 Q8Q       0.161800
      7 N2          66.4940    26.5730    14.9110 na         1 Q8Q       0.081900
      8 C9          65.3900    32.4440    10.3650 c3         1 Q8Q       0.154800
      9 C10         66.1150    31.8590     9.1310 c3         1 Q8Q       0.104000
     10 C11         67.9590    27.0820    11.6140 ca         1 Q8Q       0.009200
     11 C12         68.9000    26.2410    10.9790 ca         1 Q8Q      -0.098000
     12 N3          67.4380    25.5910    15.0110 nc         1 Q8Q      -0.580100
     13 C13         69.4280    26.5660     9.7200 ca         1 Q8Q      -0.121000
     14 C14         69.0320    27.7410     9.0670 ca         1 Q8Q      -0.066000
     15 C15         68.0880    28.6010     9.6630 ca         1 Q8Q      -0.148600
     16 N4          63.8470    29.5410    14.1050 nu         1 Q8Q      -0.932100
     17 C2          64.7330    27.9080    15.6270 cd         1 Q8Q      -0.272000
     18 C3          65.6150    26.8780    15.9470 cc         1 Q8Q       0.001000
     19 C16         67.5630    28.2580    10.9360 ca         1 Q8Q      -0.082000
     20 C17         67.6890    29.8820     8.9590 c          1 Q8Q       0.615700
     21 O1          68.3280    30.3530     8.0280 o          1 Q8Q      -0.615100
     22 N6          66.5760    30.5090     9.4570 ns         1 Q8Q      -0.501900
     23 N5          64.3120    31.5370    10.8500 n3         1 Q8Q      -0.757600
     24 C1          64.7520    28.5620    14.3460 cd         1 Q8Q       0.652900
     25 C18         62.9770    31.8540    10.2890 c3         1 Q8Q       0.159100
     26 H1          68.8370    25.0480    13.5930 h4         1 Q8Q       0.048800
     27 H2          62.4070    30.3920    12.7890 h1         1 Q8Q       0.062700
     28 H3          63.5390    29.2780    12.0200 h1         1 Q8Q       0.062700
     29 H4          65.3720    31.0500    12.6140 h1         1 Q8Q       0.041700
     30 H5          64.0350    32.1700    12.8750 h1         1 Q8Q       0.041700
     31 H6          66.1470    32.5910    11.1480 h1         1 Q8Q       0.043700
     32 H7          64.9910    33.4370    10.1200 h1         1 Q8Q       0.043700
     33 H8          66.9680    32.4970     8.8640 h1         1 Q8Q       0.055200
     34 H9          65.4260    31.8090     8.2790 h1         1 Q8Q       0.055200
     35 H10         69.2330    25.3210    11.4510 ha         1 Q8Q       0.108000
     36 H11         70.1530    25.9050     9.2500 ha         1 Q8Q       0.113000
     37 H12         69.4580    27.9810     8.0940 ha         1 Q8Q       0.131000
     38 H13         63.2080    29.7010    14.8810 hn         1 Q8Q       0.499000
     39 H14         64.0040    28.2170    16.3660 ha         1 Q8Q       0.138000
     40 H15         65.6750    26.3220    16.8740 h4         1 Q8Q       0.162000
     41 H16         66.8790    28.9420    11.4180 ha         1 Q8Q       0.131000
     42 H17         66.0690    30.0310    10.1920 hn         1 Q8Q       0.336500
     43 H19         62.2530    31.0600    10.5150 h1         1 Q8Q       0.031033
     44 H20         62.5960    32.7970    10.7030 h1         1 Q8Q       0.031033
     45 H21         63.0300    31.9540     9.1970 h1         1 Q8Q       0.031033
@<TRIPOS>BOND
     1     1     3 2   
     2     1     4 1   
     3     1     7 1   
     4     2     3 1   
     5     2    12 2   
     6     2    26 1   
     7     3    10 1   
     8     4    24 2   
     9     5     6 1   
    10     5    16 1   
    11     5    27 1   
    12     5    28 1   
    13     6    23 1   
    14     6    29 1   
    15     6    30 1   
    16     7    12 1   
    17     7    18 1   
    18     8     9 1   
    19     8    23 1   
    20     8    31 1   
    21     8    32 1   
    22     9    22 1   
    23     9    33 1   
    24     9    34 1   
    25    10    11 ar  
    26    10    19 ar  
    27    11    13 ar  
    28    11    35 1   
    29    13    14 ar  
    30    13    36 1   
    31    14    15 ar  
    32    14    37 1   
    33    15    19 ar  
    34    15    20 1   
    35    16    24 1   
    36    16    38 1   
    37    17    18 2   
    38    17    24 1   
    39    17    39 1   
    40    18    40 1   
    41    19    41 1   
    42    20    21 2   
    43    20    22 1   
    44    22    42 1   
    45    23    25 1   
    46    25    43 1   
    47    25    44 1   
    48    25    45 1   
@<TRIPOS>SUBSTRUCTURE
     1 Q8Q         1 TEMP              0 ****  ****    0 ROOT
