@<TRIPOS>MOLECULE
Q8R
   48    51     1     0     0
SMALL
No Charge or Current Charge


@<TRIPOS>ATOM
      1 C12        -29.6630     1.1340     8.6970 ca         1 Q8R      -0.079300
      2 O1         -34.4090     1.1600    16.9280 oh         1 Q8R      -0.675000
      3 C13        -29.6060    -0.2460     8.9720 ca         1 Q8R      -0.104500
      4 C14        -29.2090    -1.1520     7.9730 ca         1 Q8R      -0.111500
      5 C15        -28.8660    -0.6830     6.6940 ca         1 Q8R      -0.110000
      6 C16        -28.9200     0.6930     6.4140 ca         1 Q8R      -0.111500
      7 C17        -29.3170     1.6000     7.4130 ca         1 Q8R      -0.104500
      8 O3         -32.7470    -1.5620    15.4450 os         1 Q8R      -0.455000
      9 C7         -31.5690     1.7800    14.3440 ca         1 Q8R       0.149500
     10 C8         -31.6970     4.0650    14.3720 ca         1 Q8R       0.181900
     11 C9         -30.2810     3.1250    12.8320 ca         1 Q8R       0.443900
     12 C10        -28.9300     2.4410    10.7510 c3         1 Q8R       0.231800
     13 C11        -30.0880     2.1120     9.7850 c3         1 Q8R      -0.057100
     14 N4         -29.3640     3.3710    11.8110 nu         1 Q8R      -0.913100
     15 N          -31.7700     0.4550    14.6410 na         1 Q8R      -0.295300
     16 C          -34.9730    -0.8920    15.7580 c5         1 Q8R       0.111300
     17 N1         -30.2110     0.5740    12.9470 nc         1 Q8R      -0.555100
     18 C1         -34.1160     0.4130    15.7420 c5         1 Q8R       0.137300
     19 N2         -32.1090     2.8870    14.8890 nb         1 Q8R      -0.214000
     20 C2         -34.0640    -1.8430    14.9180 c5         1 Q8R       0.129300
     21 C3         -34.1060    -1.6090    13.3750 c3         1 Q8R       0.144600
     22 C4         -32.6330    -0.1340    15.6690 c5         1 Q8R       0.314300
     23 C5         -30.9030    -0.2290    13.7720 cd         1 Q8R       0.407700
     24 C6         -30.6490     1.8420    13.3230 ca         1 Q8R      -0.091600
     25 N3         -30.8070     4.2390    13.3700 nb         1 Q8R      -0.303000
     26 H1         -34.7970     0.4630    17.5190 ho         1 Q8R       0.511000
     27 H2         -29.8690    -0.6160     9.9600 ha         1 Q8R       0.114000
     28 H3         -29.1670    -2.2170     8.1910 ha         1 Q8R       0.111500
     29 H4         -28.5590    -1.3840     5.9210 ha         1 Q8R       0.111000
     30 H5         -28.6540     1.0570     5.4240 ha         1 Q8R       0.111500
     31 H6         -29.3540     2.6630     7.1880 ha         1 Q8R       0.114000
     32 H7         -35.3550    -1.8260    11.8660 ho         1 Q8R       0.513000
     33 H9         -32.1260     4.9660    14.8080 h5         1 Q8R       0.048100
     34 H10        -28.5320     1.5140    11.1850 h1         1 Q8R       0.067700
     35 H11        -28.1150     2.8960    10.1700 h1         1 Q8R       0.067700
     36 H12        -30.4580     3.0430     9.3390 hc         1 Q8R       0.056200
     37 H13        -30.9270     1.6890    10.3510 hc         1 Q8R       0.056200
     38 H14        -29.1990     4.3630    11.6420 hn         1 Q8R       0.501000
     39 H15        -35.9440    -0.7340    15.2670 h1         1 Q8R       0.066700
     40 H16        -34.3460     1.0110    14.8500 h1         1 Q8R       0.041700
     41 H17        -34.3030    -2.8980    15.1030 h1         1 Q8R       0.089700
     42 H18        -33.8550    -0.5660    13.1440 h1         1 Q8R       0.035700
     43 H19        -33.3410    -2.2450    12.9090 h1         1 Q8R       0.035700
     44 H20        -32.1220     0.0440    16.6240 h2         1 Q8R       0.131700
     45 H21        -30.8290    -1.3100    13.7920 h5         1 Q8R       0.060800
     46 O          -35.1650    -1.3540    17.1150 oh         1 Q8R      -0.694000
     47 O2         -35.4040    -1.9320    12.8470 oh         1 Q8R      -0.731000
     48 H8         -35.6450    -2.2150    17.0690 ho         1 Q8R       0.509000
@<TRIPOS>BOND
     1     1     3 ar  
     2     1     7 ar  
     3     1    13 1   
     4     2    18 1   
     5     2    26 1   
     6     3     4 ar  
     7     3    27 1   
     8     4     5 ar  
     9     4    28 1   
    10     5     6 ar  
    11     5    29 1   
    12     6     7 ar  
    13     6    30 1   
    14     7    31 1   
    15     8    20 1   
    16     8    22 1   
    17     9    15 1   
    18     9    19 ar  
    19     9    24 ar  
    20    10    19 ar  
    21    10    25 ar  
    22    10    33 1   
    23    11    14 1   
    24    11    24 ar  
    25    11    25 ar  
    26    12    13 1   
    27    12    14 1   
    28    12    34 1   
    29    12    35 1   
    30    13    36 1   
    31    13    37 1   
    32    14    38 1   
    33    15    22 1   
    34    15    23 1   
    35    16    18 1   
    36    16    20 1   
    37    16    39 1   
    38    16    46 1   
    39    17    23 2   
    40    17    24 1   
    41    18    22 1   
    42    18    40 1   
    43    20    21 1   
    44    20    41 1   
    45    21    42 1   
    46    21    43 1   
    47    21    47 1   
    48    22    44 1   
    49    23    45 1   
    50    32    47 1   
    51    46    48 1   
@<TRIPOS>SUBSTRUCTURE
     1 Q8R         1 TEMP              0 ****  ****    0 ROOT
