@<TRIPOS>MOLECULE
Q8R
   48    51     1     0     0
SMALL
abcg2


@<TRIPOS>ATOM
      1 C12        -29.6410     1.7490     8.5060 ca         1 Q8R      -0.079300
      2 O1         -35.1660     1.2860    14.6710 oh         1 Q8R      -0.675000
      3 C13        -30.3470     0.5500     8.3930 ca         1 Q8R      -0.104500
      4 C14        -30.1600    -0.2880     7.2980 ca         1 Q8R      -0.111500
      5 C15        -29.2580     0.0600     6.2980 ca         1 Q8R      -0.110000
      6 C16        -28.5460     1.2520     6.4000 ca         1 Q8R      -0.111500
      7 C17        -28.7380     2.0870     7.4960 ca         1 Q8R      -0.104500
      8 O3         -32.7210    -1.0930    15.6860 os         1 Q8R      -0.455000
      9 C7         -31.4100     1.8120    14.3100 ca         1 Q8R       0.149500
     10 C8         -30.6020     3.7480    15.0010 ca         1 Q8R       0.181900
     11 C9         -29.7600     2.9320    12.9970 ca         1 Q8R       0.443900
     12 C10        -28.7700     2.2880    10.7990 c3         1 Q8R       0.231800
     13 C11        -29.8050     2.6300     9.7150 c3         1 Q8R      -0.057100
     14 N4         -28.8960     3.1160    11.9860 nu         1 Q8R      -0.913100
     15 N          -32.1490     0.6530    14.2430 na         1 Q8R      -0.295300
     16 C          -35.1010    -1.0310    15.6340 c5         1 Q8R       0.111300
     17 N1         -30.8690     0.6790    12.4050 nc         1 Q8R      -0.555100
     18 C1         -34.5280     0.0300    14.6880 c5         1 Q8R       0.137300
     19 N2         -31.4400     2.7460    15.2640 nb         1 Q8R      -0.214000
     20 C2         -33.8840    -1.9410    15.8340 c5         1 Q8R       0.129300
     21 C3         -33.7830    -3.0900    14.8440 c3         1 Q8R       0.144600
     22 C4         -33.1050     0.1910    15.2230 c5         1 Q8R       0.314300
     23 C5         -31.7780     0.0210    13.0770 cd         1 Q8R       0.407700
     24 C6         -30.6160     1.8180    13.1580 ca         1 Q8R      -0.091600
     25 N3         -29.7940     3.8900    13.9520 nb         1 Q8R      -0.303000
     26 H1         -35.9720     1.2200    14.1450 ho         1 Q8R       0.511000
     27 H2         -31.0520     0.2740     9.1680 ha         1 Q8R       0.114000
     28 H3         -30.7210    -1.2120     7.2250 ha         1 Q8R       0.111500
     29 H4         -29.1120    -0.5900     5.4440 ha         1 Q8R       0.111000
     30 H5         -27.8440     1.5340     5.6250 ha         1 Q8R       0.111500
     31 H6         -28.1830     3.0160     7.5690 ha         1 Q8R       0.114000
     32 H7         -34.7960    -4.7360    14.5230 ho         1 Q8R       0.513000
     33 H9         -30.5730     4.5520    15.7300 h5         1 Q8R       0.048100
     34 H10        -28.8700     1.2430    11.0820 h1         1 Q8R       0.067700
     35 H11        -27.7640     2.4350    10.4060 h1         1 Q8R       0.067700
     36 H12        -29.6870     3.6800     9.4370 hc         1 Q8R       0.056200
     37 H13        -30.8040     2.5070    10.1370 hc         1 Q8R       0.056200
     38 H14        -28.4150     4.0030    11.9950 hn         1 Q8R       0.501000
     39 H15        -35.9370    -1.5740    15.1870 h1         1 Q8R       0.066700
     40 H16        -34.4860    -0.3970    13.6830 h1         1 Q8R       0.041700
     41 H17        -33.8820    -2.3460    16.8490 h1         1 Q8R       0.089700
     42 H18        -33.8980    -2.7240    13.8180 h1         1 Q8R       0.035700
     43 H19        -32.7920    -3.5430    14.9360 h1         1 Q8R       0.035700
     44 H20        -33.0900     0.9230    16.0320 h2         1 Q8R       0.131700
     45 H21        -32.2090    -0.9230    12.7870 h5         1 Q8R       0.060800
     46 O          -35.4940    -0.3920    16.8410 oh         1 Q8R      -0.694000
     47 O2         -34.8100    -4.0240    15.1720 oh         1 Q8R      -0.731000
     48 H8         -35.8180    -1.0690    17.4480 ho         1 Q8R       0.509000
@<TRIPOS>BOND
     1     1     3 ar  
     2     1     7 ar  
     3     1    13 1   
     4     2    18 1   
     5     2    26 1   
     6     3     4 ar  
     7     3    27 1   
     8     4     5 ar  
     9     4    28 1   
    10     5     6 ar  
    11     5    29 1   
    12     6     7 ar  
    13     6    30 1   
    14     7    31 1   
    15     8    20 1   
    16     8    22 1   
    17     9    15 1   
    18     9    19 ar  
    19     9    24 ar  
    20    10    19 ar  
    21    10    25 ar  
    22    10    33 1   
    23    11    14 1   
    24    11    24 ar  
    25    11    25 ar  
    26    12    13 1   
    27    12    14 1   
    28    12    34 1   
    29    12    35 1   
    30    13    36 1   
    31    13    37 1   
    32    14    38 1   
    33    15    22 1   
    34    15    23 1   
    35    16    18 1   
    36    16    20 1   
    37    16    39 1   
    38    16    46 1   
    39    17    23 2   
    40    17    24 1   
    41    18    22 1   
    42    18    40 1   
    43    20    21 1   
    44    20    41 1   
    45    21    42 1   
    46    21    43 1   
    47    21    47 1   
    48    22    44 1   
    49    23    45 1   
    50    32    47 1   
    51    46    48 1   
@<TRIPOS>SUBSTRUCTURE
     1 Q8R         1 TEMP              0 ****  ****    0 ROOT
