@<TRIPOS>MOLECULE
Q8S
   41    43     1     0     0
SMALL
bcc


@<TRIPOS>ATOM
      1 C10        -11.4890     2.0440   -11.6670 c5         1 Q8S      -0.081900
      2 C13        -12.1070     1.5270   -13.9180 c5         1 Q8S      -0.093900
      3 C01         -6.0460     6.5550   -16.0110 ca         1 Q8S      -0.008000
      4 C02         -6.6560     5.8830   -14.9590 ca         1 Q8S      -0.078900
      5 C03         -7.8770     6.3010   -14.4750 ca         1 Q8S       0.039000
      6 C04         -8.5050     7.3940   -15.0650 ca         1 Q8S      -0.399500
      7 C05         -7.9220     8.1010   -16.1240 ca         1 Q8S       0.273100
      8 C06         -6.6730     7.6500   -16.5710 ca         1 Q8S      -0.043600
      9 C07        -11.1630     4.5110   -14.3590 cc         1 Q8S      -0.204600
     10 C08        -10.8520     5.3770   -15.3640 cd         1 Q8S       0.451200
     11 C09         -9.9850     3.5210   -15.9270 cc         1 Q8S       0.426800
     12 C11        -10.2230     2.2440   -12.5010 c5         1 Q8S      -0.093900
     13 C12        -10.6690     2.0850   -13.9740 c5         1 Q8S       0.043000
     14 C14        -12.2840     1.0300   -12.4850 c5         1 Q8S      -0.081900
     15 N01        -11.1450     6.7520   -15.4140 nu         1 Q8S      -0.737800
     16 N02        -10.5910     3.3260   -14.7280 na         1 Q8S      -0.174900
     17 N03        -10.1220     4.7610   -16.3310 nd         1 Q8S      -0.692000
     18 O01         -8.4510     9.1550   -16.7300 oh         1 Q8S      -0.475100
     19 O02        -10.2800     7.3810   -13.1480 o          1 Q8S      -0.609300
     20 O03        -10.4850     9.1110   -14.9690 o          1 Q8S      -0.609300
     21 S01        -10.1550     7.7520   -14.5400 sy         1 Q8S       1.289200
     22 CL1         -5.9150     8.5000   -17.8630 cl         1 Q8S      -0.075400
     23 H1         -12.0500     2.9800   -11.5930 hc         1 Q8S       0.051700
     24 H2         -11.2750     1.7120   -10.6510 hc         1 Q8S       0.051700
     25 H3         -12.8200     2.3310   -14.1160 hc         1 Q8S       0.059700
     26 H4         -12.2760     0.7570   -14.6720 hc         1 Q8S       0.059700
     27 H8          -5.0860     6.2400   -16.3960 ha         1 Q8S       0.163000
     28 H9          -8.3510     5.7830   -13.6530 ha         1 Q8S       0.164000
     29 H10        -11.7190     4.6410   -13.4460 h4         1 Q8S       0.200000
     30 H11         -9.4980     1.4620   -12.2670 hc         1 Q8S       0.059700
     31 H12         -9.7280     3.1990   -12.3200 hc         1 Q8S       0.059700
     32 H13        -10.0120     1.3820   -14.4830 h1         1 Q8S       0.071700
     33 H14        -13.3330     0.9660   -12.1940 hc         1 Q8S       0.051700
     34 H15        -11.8520     0.0330   -12.3660 hc         1 Q8S       0.051700
     35 H16        -11.3360     7.1160   -16.3430 hn         1 Q8S       0.447800
     36 H17         -9.2540     9.4540   -16.2640 ho         1 Q8S       0.479000
     37 C15         -9.2370     2.4650   -16.6590 c3         1 Q8S      -0.126400
     38 BR1         -5.8160     4.3810   -14.2000 br         1 Q8S      -0.088100
     39 H5          -8.9040     2.8660   -17.6130 hc         1 Q8S       0.059367
     40 H6          -8.3550     2.1420   -16.1040 hc         1 Q8S       0.059367
     41 H7          -9.8460     1.5820   -16.8560 hc         1 Q8S       0.059367
@<TRIPOS>BOND
     1     1    12 1   
     2     1    14 1   
     3     1    23 1   
     4     1    24 1   
     5     2    13 1   
     6     2    14 1   
     7     2    25 1   
     8     2    26 1   
     9     3     4 ar  
    10     3     8 ar  
    11     3    27 1   
    12     4     5 ar  
    13     4    38 1   
    14     5     6 ar  
    15     5    28 1   
    16     6     7 ar  
    17     6    21 1   
    18     7     8 ar  
    19     7    18 1   
    20     8    22 1   
    21     9    10 2   
    22     9    16 1   
    23     9    29 1   
    24    10    15 1   
    25    10    17 1   
    26    11    16 1   
    27    11    17 2   
    28    11    37 1   
    29    12    13 1   
    30    12    30 1   
    31    12    31 1   
    32    13    16 1   
    33    13    32 1   
    34    14    33 1   
    35    14    34 1   
    36    15    21 1   
    37    15    35 1   
    38    18    36 1   
    39    19    21 2   
    40    20    21 2   
    41    37    39 1   
    42    37    40 1   
    43    37    41 1   
@<TRIPOS>SUBSTRUCTURE
     1 Q8S         1 TEMP              0 ****  ****    0 ROOT
