@<TRIPOS>MOLECULE
Q8S
   41    43     1     0     0
SMALL
No Charge or Current Charge


@<TRIPOS>ATOM
      1 C10         -9.1400     1.5170   -12.6350 c5         1 Q8S      -0.081900
      2 C13        -11.4210     2.1960   -13.3060 c5         1 Q8S      -0.093900
      3 C01         -7.1710     5.8850   -13.3040 ca         1 Q8S       0.010000
      4 C02         -8.2540     6.4940   -12.6510 ca         1 Q8S      -0.078900
      5 C03         -9.2110     7.2120   -13.3850 ca         1 Q8S       0.057000
      6 C04         -9.0950     7.3160   -14.7880 ca         1 Q8S      -0.399500
      7 C05         -7.9950     6.7220   -15.4460 ca         1 Q8S       0.273100
      8 C06         -7.0390     5.9990   -14.6970 ca         1 Q8S       0.048000
      9 C07        -11.0440     4.9540   -14.8470 cc         1 Q8S      -0.172000
     10 C08        -11.2230     5.6550   -16.0010 cd         1 Q8S       0.385900
     11 C09        -10.8730     3.6790   -16.6620 cc         1 Q8S       0.426800
     12 C11         -9.1540     2.7860   -13.5320 c5         1 Q8S      -0.093900
     13 C12        -10.3990     2.5380   -14.4190 c5         1 Q8S       0.072300
     14 C14        -10.6480     1.1400   -12.4630 c5         1 Q8S      -0.081900
     15 N01        -11.4630     6.9590   -16.1820 nu         1 Q8S      -0.793000
     16 N02        -10.7710     3.6710   -15.2750 na         1 Q8S      -0.153500
     17 N03        -11.1540     4.8920   -17.1170 nd         1 Q8S      -0.692000
     18 O01         -7.8370     6.8320   -16.8000 oh         1 Q8S      -0.514100
     19 O02        -11.1800     8.9980   -14.8010 o          1 Q8S      -0.538500
     20 O03         -9.8530     8.6210   -16.9680 o          1 Q8S      -0.538500
     21 S01        -10.3940     8.1450   -15.6940 sy         1 Q8S       1.147600
     22 Cl1         -5.6650     5.2180   -15.4850 cl         1 Q8S      -0.167000
     23 H1          -8.6480     1.7060   -11.6740 hc         1 Q8S       0.051700
     24 H2          -8.5900     0.7000   -13.1180 hc         1 Q8S       0.051700
     25 H3         -11.6760     3.0760   -12.7020 hc         1 Q8S       0.059700
     26 H4         -12.3590     1.7990   -13.7090 hc         1 Q8S       0.059700
     27 H8          -6.4350     5.3250   -12.7330 ha         1 Q8S       0.145000
     28 H9         -10.0540     7.6590   -12.8590 ha         1 Q8S       0.146000
     29 H10        -11.0600     5.2590   -13.8110 h4         1 Q8S       0.182000
     30 H11         -8.2350     2.8890   -14.1210 hc         1 Q8S       0.059700
     31 H12         -9.2560     3.6960   -12.9300 hc         1 Q8S       0.059700
     32 H13        -10.2310     1.6510   -15.0450 h1         1 Q8S       0.071700
     33 H14        -10.9600     1.1570   -11.4120 hc         1 Q8S       0.051700
     34 H15        -10.8370     0.1260   -12.8330 hc         1 Q8S       0.051700
     35 H16        -11.5810     7.1590   -17.1630 hn         1 Q8S       0.503000
     36 H17         -8.4710     7.5130   -17.1260 ho         1 Q8S       0.518000
     37 C15        -10.6710     2.4810   -17.5440 c3         1 Q8S      -0.126400
     38 Br1         -8.4430     6.3180   -10.7570 br         1 Q8S      -0.088100
     39 H5         -10.8370     2.7330   -18.5980 hc         1 Q8S       0.059367
     40 H6          -9.6490     2.0970   -17.4460 hc         1 Q8S       0.059367
     41 H7         -11.3680     1.6800   -17.2750 hc         1 Q8S       0.059367
@<TRIPOS>BOND
     1     1    12 1   
     2     1    14 1   
     3     1    23 1   
     4     1    24 1   
     5     2    13 1   
     6     2    14 1   
     7     2    25 1   
     8     2    26 1   
     9     3     4 ar  
    10     3     8 ar  
    11     3    27 1   
    12     4     5 ar  
    13     4    38 1   
    14     5     6 ar  
    15     5    28 1   
    16     6     7 ar  
    17     6    21 1   
    18     7     8 ar  
    19     7    18 1   
    20     8    22 1   
    21     9    10 2   
    22     9    16 1   
    23     9    29 1   
    24    10    15 1   
    25    10    17 1   
    26    11    16 1   
    27    11    17 2   
    28    11    37 1   
    29    12    13 1   
    30    12    30 1   
    31    12    31 1   
    32    13    16 1   
    33    13    32 1   
    34    14    33 1   
    35    14    34 1   
    36    15    21 1   
    37    15    35 1   
    38    18    36 1   
    39    19    21 2   
    40    20    21 2   
    41    37    39 1   
    42    37    40 1   
    43    37    41 1   
@<TRIPOS>SUBSTRUCTURE
     1 Q8S         1 TEMP              0 ****  ****    0 ROOT
