@<TRIPOS>MOLECULE
Q8T
   69    73     1     0     0
SMALL
No Charge or Current Charge


@<TRIPOS>ATOM
      1 C4          -2.0530     1.0800    18.0790 c3         1 Q8T       0.108000
      2 C5          -2.1410    -1.4520    17.8970 c3         1 Q8T       0.093300
      3 C6          -4.2440    -0.1200    18.3010 c          1 Q8T       0.565100
      4 N1          -2.1080     1.7160    14.2230 n3         1 Q8T      -0.730600
      5 C7          -5.1010    -1.3230    17.8280 c3         1 Q8T       0.076600
      6 C8          -6.6420    -0.0150    16.3760 ca         1 Q8T       0.152100
      7 N2          -2.8570    -0.1620    18.0350 n          1 Q8T      -0.422800
      8 C9          -5.6310     0.2650    15.4200 ca         1 Q8T      -0.230000
      9 C10         -5.8760     1.1420    14.3550 ca         1 Q8T       0.326000
     10 C11         -7.1300     1.7720    14.2600 ca         1 Q8T      -0.136000
     11 C12         -8.1390     1.5060    15.1990 ca         1 Q8T      -0.107000
     12 N3          -8.9590     0.3650    17.2040 nh         1 Q8T      -0.765400
     13 C13         -7.9190     0.6080    16.2620 ca         1 Q8T       0.221000
     14 C14         -8.7910     0.7890    18.6300 c6         1 Q8T       0.186300
     15 C15         -9.7080    -0.0220    19.6040 c6         1 Q8T       0.162300
     16 N4         -11.1470    -0.0020    19.1970 n3         1 Q8T      -0.719600
     17 C1          -1.6090     3.1030    14.0310 c3         1 Q8T       0.142100
     18 C24         -1.7570     0.8290    13.0870 c3         1 Q8T       0.232000
     19 C23         -2.2590     1.3080    11.7430 cc         1 Q8T      -0.113400
     20 C25         -3.6140     1.6050    11.3430 ca         1 Q8T      -0.245800
     21 C21         -3.6210     1.8980    10.0010 ca         1 Q8T       0.145500
     22 N8          -2.3280     1.8470     9.5180 na         1 Q8T      -0.314400
     23 C22         -1.4930     1.4760    10.5980 cd         1 Q8T      -0.176100
     24 N7          -4.7650     2.1700     9.3470 nb         1 Q8T      -0.234000
     25 C20         -5.8930     2.1320    10.0920 ca         1 Q8T       0.179900
     26 N6          -5.9790     1.8660    11.4150 nb         1 Q8T      -0.291000
     27 C19         -4.8240     1.6160    12.0590 ca         1 Q8T       0.441900
     28 N5          -4.8610     1.3640    13.4230 nu         1 Q8T      -0.943900
     29 C18        -10.3940     0.3120    16.7810 c6         1 Q8T       0.186300
     30 C17        -11.2830    -0.4890    17.7890 c6         1 Q8T       0.162300
     31 C16        -12.0160    -0.7350    20.1410 c3         1 Q8T       0.154100
     32 O2          -6.4250    -0.9090    17.4190 os         1 Q8T      -0.299100
     33 O1          -4.7570     0.8880    18.7760 o          1 Q8T      -0.574100
     34 C3          -2.1720     1.8850    16.7660 c3         1 Q8T      -0.106400
     35 C2          -1.6950     1.1160    15.5140 c3         1 Q8T       0.161800
     36 H1          -0.9970     0.8360    18.2530 h1         1 Q8T       0.055700
     37 H2          -2.3800     1.7040    18.9210 h1         1 Q8T       0.055700
     38 H3          -2.5170    -2.1710    18.6370 h1         1 Q8T       0.038700
     39 H4          -2.2940    -1.8580    16.8890 h1         1 Q8T       0.038700
     40 H5          -1.0640    -1.3180    18.0610 h1         1 Q8T       0.038700
     41 H7          -5.1610    -2.0310    18.6630 h1         1 Q8T       0.068700
     42 H8          -4.5920    -1.8330    17.0020 h1         1 Q8T       0.068700
     43 H9          -4.6610    -0.2160    15.4760 ha         1 Q8T       0.112000
     44 H10         -7.3290     2.4870    13.4710 ha         1 Q8T       0.147000
     45 H11         -9.0930     2.0160    15.1030 ha         1 Q8T       0.116000
     46 H12         -7.7480     0.6690    18.9530 h1         1 Q8T       0.045450
     47 H13         -9.0360     1.8570    18.7260 h1         1 Q8T       0.045450
     48 H14         -9.3420    -1.0600    19.6390 h1         1 Q8T       0.036950
     49 H15         -9.5920     0.3910    20.6160 h1         1 Q8T       0.036950
     50 H17         -1.9670     3.7690    14.8260 h1         1 Q8T       0.040033
     51 H18         -0.5110     3.1260    14.0280 h1         1 Q8T       0.040033
     52 H19         -1.9620     3.5230    13.0800 h1         1 Q8T       0.040033
     53 H20         -2.1730    -0.1730    13.2580 h1         1 Q8T       0.039200
     54 H21         -0.6660     0.7140    13.0300 h1         1 Q8T       0.039200
     55 H22         -2.0430     2.0280     8.5600 hn         1 Q8T       0.364000
     56 H23         -0.4210     1.3370    10.4720 h4         1 Q8T       0.215000
     57 H24         -6.8270     2.3420     9.5740 h5         1 Q8T       0.044100
     58 H25         -3.9060     1.3240    13.8110 hn         1 Q8T       0.544000
     59 H26        -10.7950     1.3330    16.6950 h1         1 Q8T       0.045450
     60 H27        -10.4820    -0.1600    15.7910 h1         1 Q8T       0.045450
     61 H28        -12.3310    -0.4190    17.4620 h1         1 Q8T       0.036950
     62 H29        -11.0010    -1.5510    17.7320 h1         1 Q8T       0.036950
     63 H30        -11.9250    -0.3200    21.1530 h1         1 Q8T       0.028367
     64 H31        -13.0690    -0.6590    19.8370 h1         1 Q8T       0.028367
     65 H32        -11.7450    -1.7990    20.1790 h1         1 Q8T       0.028367
     66 H33         -1.5940     2.8100    16.8720 hc         1 Q8T       0.066200
     67 H34         -3.2200     2.1770    16.6280 hc         1 Q8T       0.066200
     68 H35         -2.1060     0.1000    15.5600 h1         1 Q8T       0.029700
     69 H36         -0.6020     1.0190    15.5570 h1         1 Q8T       0.029700
@<TRIPOS>BOND
     1     1     7 1   
     2     1    34 1   
     3     1    36 1   
     4     1    37 1   
     5     2     7 1   
     6     2    38 1   
     7     2    39 1   
     8     2    40 1   
     9     3     5 1   
    10     3     7 1   
    11     3    33 2   
    12     4    17 1   
    13     4    18 1   
    14     4    35 1   
    15     5    32 1   
    16     5    41 1   
    17     5    42 1   
    18     6     8 ar  
    19     6    13 ar  
    20     6    32 1   
    21     8     9 ar  
    22     8    43 1   
    23     9    10 ar  
    24     9    28 1   
    25    10    11 ar  
    26    10    44 1   
    27    11    13 ar  
    28    11    45 1   
    29    12    13 1   
    30    12    14 1   
    31    12    29 1   
    32    14    15 1   
    33    14    46 1   
    34    14    47 1   
    35    15    16 1   
    36    15    48 1   
    37    15    49 1   
    38    16    30 1   
    39    16    31 1   
    40    17    50 1   
    41    17    51 1   
    42    17    52 1   
    43    18    19 1   
    44    18    53 1   
    45    18    54 1   
    46    19    20 1   
    47    19    23 2   
    48    20    21 ar  
    49    20    27 ar  
    50    21    22 1   
    51    21    24 ar  
    52    22    23 1   
    53    22    55 1   
    54    23    56 1   
    55    24    25 ar  
    56    25    26 ar  
    57    25    57 1   
    58    26    27 ar  
    59    27    28 1   
    60    28    58 1   
    61    29    30 1   
    62    29    59 1   
    63    29    60 1   
    64    30    61 1   
    65    30    62 1   
    66    31    63 1   
    67    31    64 1   
    68    31    65 1   
    69    34    35 1   
    70    34    66 1   
    71    34    67 1   
    72    35    68 1   
    73    35    69 1   
@<TRIPOS>SUBSTRUCTURE
     1 Q8T         1 TEMP              0 ****  ****    0 ROOT
