@<TRIPOS>MOLECULE
Q8T
   69    73     1     0     0
SMALL
bcc


@<TRIPOS>ATOM
      1 C4          -2.0380     0.8800    18.0190 c3         1 Q8T       0.108000
      2 C5          -2.3500    -1.5880    17.6440 c3         1 Q8T       0.093300
      3 C6          -4.2330    -0.0950    18.1260 c          1 Q8T       0.632100
      4 N1          -2.0950     1.7370    14.2930 n3         1 Q8T      -0.730600
      5 C7          -5.1430    -1.2740    17.7820 c3         1 Q8T       0.053400
      6 C8          -6.6470    -0.0700    16.4080 ca         1 Q8T       0.152100
      7 N2          -2.9100    -0.2860    17.9590 n          1 Q8T      -0.489800
      8 C9          -5.6660     0.2270    15.4770 ca         1 Q8T      -0.248000
      9 C10         -5.9550     0.9730    14.3260 ca         1 Q8T       0.187600
     10 C11         -7.2600     1.3960    14.1120 ca         1 Q8T      -0.154000
     11 C12         -8.2330     1.1110    15.0660 ca         1 Q8T      -0.125000
     12 N3          -8.9250     0.1080    17.2090 nh         1 Q8T      -0.627000
     13 C13         -7.9640     0.3990    16.2270 ca         1 Q8T       0.082600
     14 C14         -8.7720     0.8530    18.4530 c6         1 Q8T       0.186300
     15 C15         -9.6340     0.2340    19.5340 c6         1 Q8T       0.162300
     16 N4         -11.0230     0.1940    19.1230 n3         1 Q8T      -0.719600
     17 C1          -1.7640     3.1510    14.2260 c3         1 Q8T       0.142100
     18 C24         -1.5900     1.0120    13.1320 c3         1 Q8T       0.232000
     19 C23         -2.1960     1.4740    11.8480 cc         1 Q8T      -0.113400
     20 C25         -3.5830     1.6380    11.5190 ca         1 Q8T      -0.376400
     21 C21         -3.6510     1.9950    10.1660 ca         1 Q8T       0.473800
     22 N8          -2.3860     2.0700     9.6940 na         1 Q8T      -0.264100
     23 C22         -1.5100     1.7600    10.7020 cd         1 Q8T      -0.126100
     24 N7          -4.7700     2.2000     9.4660 nb         1 Q8T      -0.760000
     25 C20         -5.8580     2.0220    10.1840 ca         1 Q8T       0.705900
     26 N6          -5.9490     1.7090    11.4770 nb         1 Q8T      -0.817000
     27 C19         -4.8290     1.5320    12.1750 ca         1 Q8T       0.770200
     28 N5          -4.8650     1.2480    13.4950 nu         1 Q8T      -0.750300
     29 C18        -10.3110     0.0920    16.7900 c6         1 Q8T       0.186300
     30 C17        -11.1600    -0.5370    17.8800 c6         1 Q8T       0.162300
     31 C16        -11.8730    -0.3470    20.1580 c3         1 Q8T       0.154100
     32 O2          -6.4420    -0.8300    17.5070 os         1 Q8T      -0.275900
     33 O1          -4.7160     0.9620    18.4980 o          1 Q8T      -0.574100
     34 C3          -2.1570     1.7720    16.7850 c3         1 Q8T      -0.106400
     35 C2          -1.6170     1.1150    15.5220 c3         1 Q8T       0.161800
     36 H1          -1.0130     0.5260    18.1330 h1         1 Q8T       0.055700
     37 H2          -2.2680     1.4620    18.9120 h1         1 Q8T       0.055700
     38 H3          -2.8180    -2.3770    18.2310 h1         1 Q8T       0.038700
     39 H4          -2.4340    -1.8480    16.5860 h1         1 Q8T       0.038700
     40 H5          -1.2930    -1.5880    17.9000 h1         1 Q8T       0.038700
     41 H7          -5.2220    -1.9430    18.6420 h1         1 Q8T       0.068700
     42 H8          -4.7460    -1.8680    16.9530 h1         1 Q8T       0.068700
     43 H9          -4.6510    -0.1300    15.5970 ha         1 Q8T       0.130000
     44 H10         -7.5230     1.9600    13.2330 ha         1 Q8T       0.165000
     45 H11         -9.2350     1.4790    14.8890 ha         1 Q8T       0.134000
     46 H12         -7.7300     0.8400    18.7710 h1         1 Q8T       0.045450
     47 H13         -9.0610     1.9070    18.3130 h1         1 Q8T       0.045450
     48 H14         -9.2480    -0.7740    19.7640 h1         1 Q8T       0.036950
     49 H15         -9.5480     0.8310    20.4450 h1         1 Q8T       0.036950
     50 H17         -2.2490     3.6960    15.0330 h1         1 Q8T       0.040033
     51 H18         -0.6810     3.3290    14.2910 h1         1 Q8T       0.040033
     52 H19         -2.1190     3.5740    13.2870 h1         1 Q8T       0.040033
     53 H20         -1.8240    -0.0460    13.2860 h1         1 Q8T       0.039200
     54 H21         -0.4940     1.0790    13.0570 h1         1 Q8T       0.039200
     55 H22         -2.1310     2.3020     8.7470 hn         1 Q8T       0.313700
     56 H23         -0.4460     1.7560    10.5250 h4         1 Q8T       0.165000
     57 H24         -6.8040     2.1540     9.6690 h5         1 Q8T       0.044100
     58 H25         -3.9490     1.3100    13.9570 hn         1 Q8T       0.488800
     59 H26        -10.6990     1.1000    16.5760 h1         1 Q8T       0.045450
     60 H27        -10.4060    -0.4980    15.8760 h1         1 Q8T       0.045450
     61 H28        -12.2080    -0.5210    17.5680 h1         1 Q8T       0.036950
     62 H29        -10.8700    -1.5960    17.9950 h1         1 Q8T       0.036950
     63 H30        -11.8000     0.2630    21.0610 h1         1 Q8T       0.028367
     64 H31        -12.9140    -0.3340    19.8330 h1         1 Q8T       0.028367
     65 H32        -11.6190    -1.3830    20.4320 h1         1 Q8T       0.028367
     66 H33         -1.6170     2.6980    16.9960 hc         1 Q8T       0.066200
     67 H34         -3.2040     2.0520    16.6400 hc         1 Q8T       0.066200
     68 H35         -1.9270     0.0660    15.4840 h1         1 Q8T       0.029700
     69 H36         -0.5160     1.1060    15.5600 h1         1 Q8T       0.029700
@<TRIPOS>BOND
     1     1     7 1   
     2     1    34 1   
     3     1    36 1   
     4     1    37 1   
     5     2     7 1   
     6     2    38 1   
     7     2    39 1   
     8     2    40 1   
     9     3     5 1   
    10     3     7 1   
    11     3    33 2   
    12     4    17 1   
    13     4    18 1   
    14     4    35 1   
    15     5    32 1   
    16     5    41 1   
    17     5    42 1   
    18     6     8 ar  
    19     6    13 ar  
    20     6    32 1   
    21     8     9 ar  
    22     8    43 1   
    23     9    10 ar  
    24     9    28 1   
    25    10    11 ar  
    26    10    44 1   
    27    11    13 ar  
    28    11    45 1   
    29    12    13 1   
    30    12    14 1   
    31    12    29 1   
    32    14    15 1   
    33    14    46 1   
    34    14    47 1   
    35    15    16 1   
    36    15    48 1   
    37    15    49 1   
    38    16    30 1   
    39    16    31 1   
    40    17    50 1   
    41    17    51 1   
    42    17    52 1   
    43    18    19 1   
    44    18    53 1   
    45    18    54 1   
    46    19    20 1   
    47    19    23 2   
    48    20    21 ar  
    49    20    27 ar  
    50    21    22 1   
    51    21    24 ar  
    52    22    23 1   
    53    22    55 1   
    54    23    56 1   
    55    24    25 ar  
    56    25    26 ar  
    57    25    57 1   
    58    26    27 ar  
    59    27    28 1   
    60    28    58 1   
    61    29    30 1   
    62    29    59 1   
    63    29    60 1   
    64    30    61 1   
    65    30    62 1   
    66    31    63 1   
    67    31    64 1   
    68    31    65 1   
    69    34    35 1   
    70    34    66 1   
    71    34    67 1   
    72    35    68 1   
    73    35    69 1   
@<TRIPOS>SUBSTRUCTURE
     1 Q8T         1 TEMP              0 ****  ****    0 ROOT
