@<TRIPOS>MOLECULE
Q8V
   28    28     1     0     0
SMALL
bcc


@<TRIPOS>ATOM
      1 C1           3.5050    -1.1710    -0.9200 ca         1 Q8V      -0.129000
      2 C10         -1.9810     0.6700    -0.1360 c          1 Q8V       0.693300
      3 C11         -4.2790     0.0920    -0.0780 c3         1 Q8V       0.147400
      4 C12         -5.1000    -1.1530     0.1500 c3         1 Q8V      -0.097100
      5 C2           2.2200    -0.6530    -0.9620 ca         1 Q8V      -0.093500
      6 C3           4.4270    -0.6790    -0.0050 ca         1 Q8V      -0.104000
      7 C4           1.8560     0.3720    -0.0920 ca         1 Q8V      -0.118800
      8 C5           4.0640     0.3410     0.8640 ca         1 Q8V      -0.129000
      9 C6           2.7850     0.8740     0.8160 ca         1 Q8V      -0.093500
     10 C7           0.4980     0.9570    -0.1520 ce         1 Q8V       0.342800
     11 C8          -0.6280     0.1490    -0.0100 cf         1 Q8V      -0.267900
     12 C9          -0.4720    -1.2160     0.3200 ch         1 Q8V       0.241500
     13 N1          -0.3670    -2.3300     0.6090 n1         1 Q8V      -0.403800
     14 N2           0.4430     2.2620    -0.3290 nv         1 Q8V      -0.825600
     15 O1          -2.2560     1.8350    -0.3550 o          1 Q8V      -0.609000
     16 O2          -2.8950    -0.2770     0.0130 os         1 Q8V      -0.406900
     17 H1           3.7870    -1.9590    -1.6050 ha         1 Q8V       0.138500
     18 H2          -4.4830     0.5160    -1.0630 h1         1 Q8V       0.045200
     19 H3          -4.5080     0.8540     0.6710 h1         1 Q8V       0.045200
     20 H4          -4.8930    -1.9120    -0.6050 hc         1 Q8V       0.047367
     21 H5          -4.9170    -1.5820     1.1350 hc         1 Q8V       0.047367
     22 H6          -6.1580    -0.8990     0.0870 hc         1 Q8V       0.047367
     23 H7           1.5100    -1.0350    -1.6840 ha         1 Q8V       0.142500
     24 H8           5.4280    -1.0890     0.0300 ha         1 Q8V       0.137000
     25 H9           4.7770     0.7250     1.5820 ha         1 Q8V       0.138500
     26 H10          2.5070     1.6670     1.5000 ha         1 Q8V       0.142500
     27 H11          1.2820     2.7900    -0.5090 hn         1 Q8V       0.461300
     28 H12         -0.4470     2.7360    -0.3770 hn         1 Q8V       0.461300
@<TRIPOS>BOND
     1     1     5 ar  
     2     1     6 ar  
     3     1    17 1   
     4     2    11 1   
     5     2    15 2   
     6     2    16 1   
     7     3     4 1   
     8     3    16 1   
     9     3    18 1   
    10     3    19 1   
    11     4    20 1   
    12     4    21 1   
    13     4    22 1   
    14     5     7 ar  
    15     5    23 1   
    16     6     8 ar  
    17     6    24 1   
    18     7     9 ar  
    19     7    10 1   
    20     8     9 ar  
    21     8    25 1   
    22     9    26 1   
    23    10    11 2   
    24    10    14 1   
    25    11    12 1   
    26    12    13 3   
    27    14    27 1   
    28    14    28 1   
@<TRIPOS>SUBSTRUCTURE
     1 Q8V         1 TEMP              0 ****  ****    0 ROOT
