@<TRIPOS>MOLECULE
Q8V
   28    28     1     0     0
SMALL
No Charge or Current Charge


@<TRIPOS>ATOM
      1 C1           3.6960    -1.0550    -0.9760 ca         1 Q8V      -0.111000
      2 C10         -2.0180     0.6570    -0.1410 c          1 Q8V       0.644300
      3 C11         -4.3700     0.1370    -0.0260 c3         1 Q8V       0.170600
      4 C12         -5.2470    -1.0950     0.2470 c3         1 Q8V      -0.097100
      5 C2           2.3730    -0.5840    -1.0460 ca         1 Q8V      -0.075500
      6 C3           4.5520    -0.6020     0.0420 ca         1 Q8V      -0.086000
      7 C4           1.8960     0.3430    -0.0960 ca         1 Q8V      -0.118800
      8 C5           4.0850     0.3230     0.9900 ca         1 Q8V      -0.111000
      9 C6           2.7620     0.7960     0.9210 ca         1 Q8V      -0.075500
     10 C7           0.4920     0.8440    -0.1700 ce         1 Q8V       0.342800
     11 C8          -0.6350     0.0900    -0.0300 cf         1 Q8V      -0.267900
     12 C9          -0.5230    -1.3050     0.2440 ch         1 Q8V       0.330700
     13 N1          -0.3860    -2.4430     0.4650 n1         1 Q8V      -0.493000
     14 N2           0.4790     2.2040    -0.3990 nv         1 Q8V      -0.936000
     15 O1          -2.2630     1.8270    -0.4100 o          1 Q8V      -0.560000
     16 O2          -2.9990    -0.2820     0.0660 os         1 Q8V      -0.430100
     17 H1           4.0570    -1.7710    -1.7110 ha         1 Q8V       0.120500
     18 H2          -4.5940     0.5310    -1.0260 h1         1 Q8V       0.045200
     19 H3          -4.5930     0.9160     0.7150 h1         1 Q8V       0.045200
     20 H4          -5.0490    -1.8810    -0.4920 hc         1 Q8V       0.047367
     21 H5          -5.0480    -1.4960     1.2480 hc         1 Q8V       0.047367
     22 H6          -6.3080    -0.8260     0.1880 hc         1 Q8V       0.047367
     23 H7           1.7190    -0.9380    -1.8400 ha         1 Q8V       0.124500
     24 H8           5.5760    -0.9680     0.0960 ha         1 Q8V       0.119000
     25 H9           4.7470     0.6750     1.7790 ha         1 Q8V       0.120500
     26 H10          2.4070     1.5100     1.6610 ha         1 Q8V       0.124500
     27 H11          1.3150     2.6430    -0.7770 hn         1 Q8V       0.516500
     28 H12         -0.4180     2.6340    -0.6250 hn         1 Q8V       0.516500
@<TRIPOS>BOND
     1     1     5 ar  
     2     1     6 ar  
     3     1    17 1   
     4     2    11 1   
     5     2    15 2   
     6     2    16 1   
     7     3     4 1   
     8     3    16 1   
     9     3    18 1   
    10     3    19 1   
    11     4    20 1   
    12     4    21 1   
    13     4    22 1   
    14     5     7 ar  
    15     5    23 1   
    16     6     8 ar  
    17     6    24 1   
    18     7     9 ar  
    19     7    10 1   
    20     8     9 ar  
    21     8    25 1   
    22     9    26 1   
    23    10    11 2   
    24    10    14 1   
    25    11    12 1   
    26    12    13 3   
    27    14    27 1   
    28    14    28 1   
@<TRIPOS>SUBSTRUCTURE
     1 Q8V         1 TEMP              0 ****  ****    0 ROOT
