@<TRIPOS>MOLECULE
Q8W
   56    60     1     0     0
SMALL
No Charge or Current Charge


@<TRIPOS>ATOM
      1 C4          67.2330    24.8930    13.0720 cc         1 Q8W       0.417500
      2 C5          67.0500    26.1390    12.4050 cc         1 Q8W      -0.257800
      3 C6          67.7620    26.7080    11.2400 ca         1 Q8W       0.049200
      4 N1          65.8510    25.9240    14.2180 na         1 Q8W       0.083900
      5 C7          68.9990    26.1800    10.8190 ca         1 Q8W      -0.143000
      6 C8          69.7130    26.7800     9.7620 ca         1 Q8W      -0.083000
      7 N2          66.5020    24.7090    14.1740 nd         1 Q8W      -0.582100
      8 C9          69.2080    27.9290     9.1230 ca         1 Q8W      -0.143000
      9 C10         67.9610    28.4460     9.5050 ca         1 Q8W       0.128100
     10 C11         67.2350    27.7940    10.5180 ca         1 Q8W      -0.186000
     11 C12         66.3360    30.1910     9.4300 c2         1 Q8W      -0.080900
     12 N3          65.1540    31.8100    10.7410 nh         1 Q8W      -0.673400
     13 C13         66.2980    31.3700    10.0670 c2         1 Q8W      -0.041000
     14 C14         64.7100    33.2250    10.6590 c3         1 Q8W       0.204800
     15 C15         64.2550    33.6690     9.2400 c3         1 Q8W       0.156800
     16 N4          63.8720    35.1040     9.1000 n3         1 Q8W      -0.719600
     17 N5          64.5170    29.7440    13.9800 nu         1 Q8W      -0.929100
     18 C           64.9940    28.4670    14.0280 cc         1 Q8W       0.653900
     19 C21         65.0500    30.8520    13.1280 c3         1 Q8W       0.193800
     20 C20         64.4200    30.9200    11.7000 c3         1 Q8W       0.197800
     21 C19         63.6460    35.4920     7.6720 c6         1 Q8W       0.127300
     22 C18         63.2670    36.9970     7.5310 c6         1 Q8W       0.152600
     23 O1          62.1150    37.3030     8.3520 os         1 Q8W      -0.448000
     24 C17         62.3370    37.0100     9.7530 c6         1 Q8W       0.152600
     25 C16         62.7000    35.5070     9.9430 c6         1 Q8W       0.127300
     26 O           67.5000    29.6340     8.9560 os         1 Q8W      -0.251200
     27 C2          66.1790    26.8190    13.2160 cd         1 Q8W       0.443500
     28 N           65.8230    28.1420    13.0680 nd         1 Q8W      -0.766000
     29 C3          64.9850    26.3040    15.2430 cd         1 Q8W       0.001000
     30 C1          64.5450    27.6210    15.1050 cc         1 Q8W      -0.269000
     31 H1          67.8980    24.0960    12.7670 h4         1 Q8W       0.048800
     32 H2          69.4320    25.3230    11.3300 ha         1 Q8W       0.110000
     33 H3          70.6770    26.3750     9.4610 ha         1 Q8W       0.110000
     34 H4          69.7830    28.4210     8.3430 ha         1 Q8W       0.125000
     35 H5          66.2440    28.1440    10.7530 ha         1 Q8W       0.148000
     36 H6          65.4580    29.5540     9.3230 h4         1 Q8W       0.186000
     37 H7          67.1820    32.0030    10.1670 h4         1 Q8W       0.183000
     38 H8          65.5330    33.8770    10.9800 h1         1 Q8W       0.039200
     39 H9          63.8810    33.3910    11.3580 h1         1 Q8W       0.039200
     40 H10         63.4140    33.0300     8.9360 h1         1 Q8W       0.044200
     41 H11         65.0810    33.4510     8.5510 h1         1 Q8W       0.044200
     42 H13         63.9210    29.9890    14.7680 hn         1 Q8W       0.499000
     43 H14         66.1380    30.7440    13.0180 h1         1 Q8W       0.059700
     44 H15         64.8820    31.8180    13.6230 h1         1 Q8W       0.059700
     45 H16         63.3820    31.2590    11.8100 h1         1 Q8W       0.061700
     46 H17         64.3690    29.9030    11.2920 h1         1 Q8W       0.061700
     47 H18         62.8390    34.8850     7.2350 h1         1 Q8W       0.040950
     48 H19         64.5500    35.3000     7.0760 h1         1 Q8W       0.040950
     49 H20         64.1120    37.6280     7.8410 h1         1 Q8W       0.050450
     50 H21         63.0340    37.2280     6.4820 h1         1 Q8W       0.050450
     51 H22         63.1520    37.6440    10.1310 h1         1 Q8W       0.050450
     52 H23         61.4260    37.2510    10.3190 h1         1 Q8W       0.050450
     53 H24         61.8200    34.8980     9.6890 h1         1 Q8W       0.040950
     54 H25         62.9110    35.3400    11.0090 h1         1 Q8W       0.040950
     55 H26         64.7290    25.5970    16.0230 h4         1 Q8W       0.162000
     56 H27         63.8570    28.0350    15.8320 ha         1 Q8W       0.138000
@<TRIPOS>BOND
     1     1     2 1   
     2     1     7 2   
     3     1    31 1   
     4     2     3 1   
     5     2    27 2   
     6     3     5 ar  
     7     3    10 ar  
     8     4     7 1   
     9     4    27 1   
    10     4    29 1   
    11     5     6 ar  
    12     5    32 1   
    13     6     8 ar  
    14     6    33 1   
    15     8     9 ar  
    16     8    34 1   
    17     9    10 ar  
    18     9    26 1   
    19    10    35 1   
    20    11    13 2   
    21    11    26 1   
    22    11    36 1   
    23    12    13 1   
    24    12    14 1   
    25    12    20 1   
    26    13    37 1   
    27    14    15 1   
    28    14    38 1   
    29    14    39 1   
    30    15    16 1   
    31    15    40 1   
    32    15    41 1   
    33    16    21 1   
    34    16    25 1   
    35    17    18 1   
    36    17    19 1   
    37    17    42 1   
    38    18    28 2   
    39    18    30 1   
    40    19    20 1   
    41    19    43 1   
    42    19    44 1   
    43    20    45 1   
    44    20    46 1   
    45    21    22 1   
    46    21    47 1   
    47    21    48 1   
    48    22    23 1   
    49    22    49 1   
    50    22    50 1   
    51    23    24 1   
    52    24    25 1   
    53    24    51 1   
    54    24    52 1   
    55    25    53 1   
    56    25    54 1   
    57    27    28 1   
    58    29    30 2   
    59    29    55 1   
    60    30    56 1   
@<TRIPOS>SUBSTRUCTURE
     1 Q8W         1 TEMP              0 ****  ****    0 ROOT
