@<TRIPOS>MOLECULE
Q8W
   56    60     1     0     0
SMALL
abcg2


@<TRIPOS>ATOM
      1 C4          67.6440    25.3180    13.3210 cc         1 Q8W       0.417500
      2 C5          67.4170    26.4970    12.5840 cc         1 Q8W      -0.257800
      3 C6          67.9930    26.9460    11.3230 ca         1 Q8W       0.049200
      4 N1          66.1580    26.3400    14.3960 na         1 Q8W       0.083900
      5 C7          69.0520    26.2910    10.6880 ca         1 Q8W      -0.143000
      6 C8          69.5330    26.7690     9.4750 ca         1 Q8W      -0.083000
      7 N2          66.8970    25.2160    14.4030 nd         1 Q8W      -0.582100
      8 C9          68.9780    27.8810     8.8530 ca         1 Q8W      -0.143000
      9 C10         67.9220    28.5290     9.4860 ca         1 Q8W       0.128100
     10 C11         67.4510    28.0760    10.7050 ca         1 Q8W      -0.186000
     11 C12         66.0920    29.9400     9.3130 c2         1 Q8W      -0.080900
     12 N3          64.5720    31.4350    10.4210 nh         1 Q8W      -0.673400
     13 C13         65.8240    31.1070     9.8970 c2         1 Q8W      -0.041000
     14 C14         64.3140    32.8560    10.5550 c3         1 Q8W       0.204800
     15 C15         64.0650    33.4890     9.1910 c3         1 Q8W       0.156800
     16 N4          63.9110    34.9270     9.2550 n3         1 Q8W      -0.719600
     17 N5          64.2940    29.8750    13.8510 nu         1 Q8W      -0.929100
     18 C           64.8910    28.6850    14.0230 cc         1 Q8W       0.653900
     19 C21         64.7020    30.8190    12.8340 c3         1 Q8W       0.193800
     20 C20         64.0380    30.5800    11.4700 c3         1 Q8W       0.197800
     21 C19         64.0380    35.5330     7.9410 c6         1 Q8W       0.127300
     22 C18         63.9110    37.0410     8.0390 c6         1 Q8W       0.152600
     23 O1          62.6880    37.4210     8.6300 os         1 Q8W      -0.448000
     24 C17         62.5560    36.8440     9.9100 c6         1 Q8W       0.152600
     25 C16         62.6530    35.3310     9.8600 c6         1 Q8W       0.127300
     26 O           67.3600    29.6160     8.8820 os         1 Q8W      -0.251200
     27 C2          66.4300    27.1530    13.3250 cd         1 Q8W       0.443500
     28 N           65.8030    28.3180    13.1490 nd         1 Q8W      -0.766000
     29 C3          65.2110    26.6850    15.3030 cd         1 Q8W       0.001000
     30 C1          64.5500    27.8530    15.1440 cc         1 Q8W      -0.269000
     31 H1          68.3380    24.5230    13.0870 h4         1 Q8W       0.048800
     32 H2          69.5090    25.4150    11.1320 ha         1 Q8W       0.110000
     33 H3          70.3550    26.2550     8.9930 ha         1 Q8W       0.110000
     34 H4          69.3530    28.2310     7.9000 ha         1 Q8W       0.125000
     35 H5          66.6560    28.6100    11.2000 ha         1 Q8W       0.148000
     36 H6          65.3420    29.1630     9.1820 h4         1 Q8W       0.186000
     37 H7          66.6100    31.8570     9.9780 h4         1 Q8W       0.183000
     38 H8          65.1430    33.3860    11.0460 h1         1 Q8W       0.039200
     39 H9          63.4410    32.9760    11.1980 h1         1 Q8W       0.039200
     40 H10         63.1970    32.9980     8.7180 h1         1 Q8W       0.044200
     41 H11         64.9260    33.2770     8.5490 h1         1 Q8W       0.044200
     42 H13         63.6110    30.1680    14.5290 hn         1 Q8W       0.499000
     43 H14         65.7870    30.7730    12.7170 h1         1 Q8W       0.059700
     44 H15         64.4540    31.8160    13.2000 h1         1 Q8W       0.059700
     45 H16         62.9630    30.7560    11.5510 h1         1 Q8W       0.061700
     46 H17         64.1610    29.5370    11.1800 h1         1 Q8W       0.061700
     47 H18         63.2830    35.1450     7.2360 h1         1 Q8W       0.040950
     48 H19         65.0190    35.2900     7.5260 h1         1 Q8W       0.040950
     49 H20         64.7570    37.4400     8.6170 h1         1 Q8W       0.050450
     50 H21         63.9470    37.4840     7.0430 h1         1 Q8W       0.050450
     51 H22         63.3290    37.2340    10.5880 h1         1 Q8W       0.050450
     52 H23         61.5840    37.1420    10.3040 h1         1 Q8W       0.050450
     53 H24         61.7900    34.9210     9.3070 h1         1 Q8W       0.040950
     54 H25         62.5860    34.9570    10.8830 h1         1 Q8W       0.040950
     55 H26         65.0370    25.9950    16.1160 h4         1 Q8W       0.162000
     56 H27         63.7950    28.1490    15.8580 ha         1 Q8W       0.138000
@<TRIPOS>BOND
     1     1     2 1   
     2     1     7 2   
     3     1    31 1   
     4     2     3 1   
     5     2    27 2   
     6     3     5 ar  
     7     3    10 ar  
     8     4     7 1   
     9     4    27 1   
    10     4    29 1   
    11     5     6 ar  
    12     5    32 1   
    13     6     8 ar  
    14     6    33 1   
    15     8     9 ar  
    16     8    34 1   
    17     9    10 ar  
    18     9    26 1   
    19    10    35 1   
    20    11    13 2   
    21    11    26 1   
    22    11    36 1   
    23    12    13 1   
    24    12    14 1   
    25    12    20 1   
    26    13    37 1   
    27    14    15 1   
    28    14    38 1   
    29    14    39 1   
    30    15    16 1   
    31    15    40 1   
    32    15    41 1   
    33    16    21 1   
    34    16    25 1   
    35    17    18 1   
    36    17    19 1   
    37    17    42 1   
    38    18    28 2   
    39    18    30 1   
    40    19    20 1   
    41    19    43 1   
    42    19    44 1   
    43    20    45 1   
    44    20    46 1   
    45    21    22 1   
    46    21    47 1   
    47    21    48 1   
    48    22    23 1   
    49    22    49 1   
    50    22    50 1   
    51    23    24 1   
    52    24    25 1   
    53    24    51 1   
    54    24    52 1   
    55    25    53 1   
    56    25    54 1   
    57    27    28 1   
    58    29    30 2   
    59    29    55 1   
    60    30    56 1   
@<TRIPOS>SUBSTRUCTURE
     1 Q8W         1 TEMP              0 ****  ****    0 ROOT
