@<TRIPOS>MOLECULE
Q8X
   34    35     1     0     0
SMALL
No Charge or Current Charge


@<TRIPOS>ATOM
      1 N           26.7810    33.4920    17.2830 n8         1 Q8X      -1.006200
      2 CA          27.6510    33.0130    18.4220 c3         1 Q8X       0.066500
      3 C           26.9380    32.8500    19.8050 c          1 Q8X       0.531900
      4 O           25.7310    33.0010    19.9770 o          1 Q8X      -0.500100
      5 CB          28.9020    33.9190    18.5740 c3         1 Q8X       0.077600
      6 SG          28.4390    35.6570    19.0450 ss         1 Q8X      -0.470000
      7 C10         29.9410    43.1220    19.8110 ca         1 Q8X      -0.149000
      8 C11         29.8490    44.4460    20.2720 ca         1 Q8X      -0.076000
      9 C12         29.5620    44.6570    21.6270 ca         1 Q8X      -0.157000
     10 C13         29.3830    43.5460    22.4650 ca         1 Q8X       0.334900
     11 C3          30.1160    36.4360    19.0810 c3         1 Q8X       0.138900
     12 C4          30.0070    37.9050    19.4480 ca         1 Q8X      -0.131300
     13 C5          29.7690    38.8810    18.4670 ca         1 Q8X      -0.059000
     14 C6          29.6780    40.2240    18.8670 ca         1 Q8X      -0.151000
     15 C7          29.8290    40.5810    20.2360 cp         1 Q8X       0.302000
     16 C8          30.1360    38.3190    20.7850 ca         1 Q8X       0.353900
     17 C9          29.7410    42.0320    20.7050 cp         1 Q8X       0.291000
     18 N2          30.0500    39.6130    21.1700 nb         1 Q8X      -0.629000
     19 N3          29.4720    42.2720    22.0210 nb         1 Q8X      -0.629000
     20 H           25.8870    32.9830    17.3050 hn         1 Q8X       0.413000
     21 H2          26.5010    34.4620    17.4830 hn         1 Q8X       0.413000
     22 HA          28.0110    32.0050    18.1700 h1         1 Q8X       0.088700
     23 H3          27.6040    32.5750    20.6530 h4         1 Q8X      -0.004800
     24 HB3         29.5690    33.5030    19.3420 h1         1 Q8X       0.073700
     25 HB2         29.4540    33.9390    17.6250 h1         1 Q8X       0.073700
     26 H13         30.0020    45.2850    19.5960 ha         1 Q8X       0.120000
     27 H14         29.4820    45.6620    22.0310 ha         1 Q8X       0.125000
     28 H15         29.1620    43.6780    23.5240 h4         1 Q8X       0.023100
     29 H8          30.5850    36.3320    18.0930 h1         1 Q8X       0.069200
     30 H7          30.7450    35.9100    19.8120 h1         1 Q8X       0.069200
     31 H9          29.6490    38.6050    17.4210 ha         1 Q8X       0.125000
     32 H10         29.4750    40.9810    18.1170 ha         1 Q8X       0.126000
     33 H11         30.3150    37.5920    21.5780 h4         1 Q8X       0.025100
     34 H12         30.1810    42.9470    18.7670 ha         1 Q8X       0.123000
@<TRIPOS>BOND
     1     1     2 1   
     2     1    20 1   
     3     1    21 1   
     4     2     3 1   
     5     2     5 1   
     6     2    22 1   
     7     3     4 2   
     8     3    23 1   
     9     5     6 1   
    10     5    24 1   
    11     5    25 1   
    12     6    11 1   
    13     7     8 ar  
    14     7    17 ar  
    15     7    34 1   
    16     8     9 ar  
    17     8    26 1   
    18     9    10 ar  
    19     9    27 1   
    20    10    19 ar  
    21    10    28 1   
    22    11    12 1   
    23    11    29 1   
    24    11    30 1   
    25    12    13 ar  
    26    12    16 ar  
    27    13    14 ar  
    28    13    31 1   
    29    14    15 ar  
    30    14    32 1   
    31    15    17 1   
    32    15    18 ar  
    33    16    18 ar  
    34    16    33 1   
    35    17    19 ar  
@<TRIPOS>SUBSTRUCTURE
     1 Q8X         1 TEMP              0 ****  ****    0 ROOT
