@<TRIPOS>MOLECULE
Q8X
   34    35     1     0     0
SMALL
abcg2


@<TRIPOS>ATOM
      1 N           26.8510    33.6690    17.3190 n8         1 Q8X      -1.006200
      2 CA          27.6310    33.1450    18.4370 c3         1 Q8X       0.066500
      3 C           26.8010    33.0150    19.7030 c          1 Q8X       0.531900
      4 O           26.8200    32.0530    20.4360 o          1 Q8X      -0.500100
      5 CB          28.8780    33.9940    18.6950 c3         1 Q8X       0.077600
      6 SG          28.4590    35.6870    19.2530 ss         1 Q8X      -0.470000
      7 C10         30.0660    42.9960    19.8180 ca         1 Q8X      -0.149000
      8 C11         29.9730    44.3010    20.2790 ca         1 Q8X      -0.076000
      9 C12         29.5930    44.5220    21.5960 ca         1 Q8X      -0.157000
     10 C13         29.3310    43.4160    22.3960 ca         1 Q8X       0.334900
     11 C3          30.1230    36.4460    19.1000 c3         1 Q8X       0.138900
     12 C4          30.0330    37.8970    19.4530 ca         1 Q8X      -0.131300
     13 C5          29.6200    38.8550    18.5320 ca         1 Q8X      -0.059000
     14 C6          29.5370    40.1820    18.9200 ca         1 Q8X      -0.151000
     15 C7          29.8640    40.5310    20.2330 cp         1 Q8X       0.302000
     16 C8          30.3400    38.3420    20.7380 ca         1 Q8X       0.353900
     17 C9          29.7790    41.9440    20.6910 cp         1 Q8X       0.291000
     18 N2          30.2600    39.6130    21.1260 nb         1 Q8X      -0.629000
     19 N3          29.4200    42.1570    21.9660 nb         1 Q8X      -0.629000
     20 H           26.0320    33.0930    17.1540 hn         1 Q8X       0.413000
     21 H2          26.5270    34.6120    17.5090 hn         1 Q8X       0.413000
     22 HA          27.9800    32.1410    18.1790 h1         1 Q8X       0.088700
     23 H3          26.1260    33.8700    19.9080 h4         1 Q8X      -0.004800
     24 HB3         29.4980    33.5150    19.4530 h1         1 Q8X       0.073700
     25 HB2         29.4440    34.0730    17.7670 h1         1 Q8X       0.073700
     26 H13         30.1990    45.1300    19.6210 ha         1 Q8X       0.120000
     27 H14         29.5040    45.5210    21.9990 ha         1 Q8X       0.125000
     28 H15         29.0310    43.5480    23.4300 h4         1 Q8X       0.023100
     29 H8          30.4570    36.3100    18.0710 h1         1 Q8X       0.069200
     30 H7          30.8050    35.9230    19.7700 h1         1 Q8X       0.069200
     31 H9          29.3610    38.5630    17.5210 ha         1 Q8X       0.125000
     32 H10         29.2060    40.9350    18.2180 ha         1 Q8X       0.126000
     33 H11         30.6730    37.6290    21.4860 h4         1 Q8X       0.025100
     34 H12         30.3750    42.7960    18.8020 ha         1 Q8X       0.123000
@<TRIPOS>BOND
     1     1     2 1   
     2     1    20 1   
     3     1    21 1   
     4     2     3 1   
     5     2     5 1   
     6     2    22 1   
     7     3     4 2   
     8     3    23 1   
     9     5     6 1   
    10     5    24 1   
    11     5    25 1   
    12     6    11 1   
    13     7     8 ar  
    14     7    17 ar  
    15     7    34 1   
    16     8     9 ar  
    17     8    26 1   
    18     9    10 ar  
    19     9    27 1   
    20    10    19 ar  
    21    10    28 1   
    22    11    12 1   
    23    11    29 1   
    24    11    30 1   
    25    12    13 ar  
    26    12    16 ar  
    27    13    14 ar  
    28    13    31 1   
    29    14    15 ar  
    30    14    32 1   
    31    15    17 1   
    32    15    18 ar  
    33    16    18 ar  
    34    16    33 1   
    35    17    19 ar  
@<TRIPOS>SUBSTRUCTURE
     1 Q8X         1 TEMP              0 ****  ****    0 ROOT
