@<TRIPOS>MOLECULE
Q8Y
   51    54     1     0     0
SMALL
No Charge or Current Charge


@<TRIPOS>ATOM
      1 C4         -33.3690     0.0710    14.4460 c5         1 Q8Y       0.319300
      2 C5         -31.5490    -0.5060    12.7580 cc         1 Q8Y       0.414700
      3 C6         -30.2770     1.2290    12.9760 ca         1 Q8Y      -0.087600
      4 C3         -33.8110    -2.4700    16.8800 c3         1 Q8Y       0.146600
      5 C2         -34.2410    -1.0900    16.2930 c5         1 Q8Y       0.133300
      6 C1         -34.3340    -1.0240    13.8870 c5         1 Q8Y       0.140300
      7 C          -35.2820    -1.1520    15.1120 c5         1 Q8Y       0.112300
      8 O1         -35.0640    -0.6340    12.7140 oh         1 Q8Y      -0.679000
      9 O2         -33.3870    -3.3980    15.8600 oh         1 Q8Y      -0.739000
     10 N          -32.1180     0.3200    13.7300 na         1 Q8Y      -0.296300
     11 O          -36.2150    -0.0510    15.1330 oh         1 Q8Y      -0.692000
     12 C10        -27.9880     1.4520    10.8190 c3         1 Q8Y       0.227800
     13 C11        -28.9410     1.9810     9.7260 c3         1 Q8Y      -0.104400
     14 C12        -28.8120     1.2130     8.3930 c3         1 Q8Y      -0.026100
     15 C13        -29.7690     1.7440     7.3330 ca         1 Q8Y      -0.078300
     16 C14        -29.3270     2.6820     6.3790 ca         1 Q8Y      -0.106500
     17 C15        -30.2140     3.1730     5.4050 ca         1 Q8Y      -0.110500
     18 C16        -31.5470     2.7300     5.3790 ca         1 Q8Y      -0.112000
     19 C17        -31.9930     1.7960     6.3290 ca         1 Q8Y      -0.110500
     20 C18        -31.1070     1.3050     7.3040 ca         1 Q8Y      -0.106500
     21 C7         -31.3110     1.4120    13.8640 ca         1 Q8Y       0.144500
     22 C8         -30.4000     3.3950    14.5370 ca         1 Q8Y       0.176900
     23 C9         -29.2730     2.2340    12.9050 ca         1 Q8Y       0.437900
     24 N1         -30.4100     0.0220    12.2740 nd         1 Q8Y      -0.564100
     25 N2         -31.4000     2.4950    14.6600 nb         1 Q8Y      -0.214000
     26 N3         -29.3380     3.3170    13.7010 nb         1 Q8Y      -0.302000
     27 N4         -28.1550     2.2090    12.0720 nu         1 Q8Y      -0.909100
     28 O3         -33.0720    -0.3910    15.7800 os         1 Q8Y      -0.450000
     29 H1         -33.8950     1.0340    14.4990 h2         1 Q8Y       0.126700
     30 H2         -31.9920    -1.4470    12.4530 h5         1 Q8Y       0.076800
     31 H3         -34.6640    -2.8870    17.4330 h1         1 Q8Y       0.039700
     32 H4         -33.0040    -2.3020    17.6060 h1         1 Q8Y       0.039700
     33 H5         -34.6490    -0.5000    17.1250 h1         1 Q8Y       0.074700
     34 H6         -33.7950    -1.9650    13.7100 h1         1 Q8Y       0.066700
     35 H7         -35.8200    -2.1100    15.1000 h1         1 Q8Y       0.058700
     36 H8         -35.8600    -0.1720    13.0780 ho         1 Q8Y       0.509000
     37 H9         -33.0610    -4.2070    16.3230 ho         1 Q8Y       0.512000
     38 H10        -36.8490    -0.2110    15.8720 ho         1 Q8Y       0.501000
     39 H11        -28.1650     0.3810    10.9850 h1         1 Q8Y       0.064200
     40 H12        -26.9540     1.5550    10.4610 h1         1 Q8Y       0.064200
     41 H13        -28.7350     3.0430     9.5490 hc         1 Q8Y       0.053200
     42 H14        -29.9770     1.9090    10.0770 hc         1 Q8Y       0.053200
     43 H15        -29.0070     0.1480     8.5710 hc         1 Q8Y       0.048200
     44 H16        -27.7760     1.2790     8.0370 hc         1 Q8Y       0.048200
     45 H17        -28.2980     3.0330     6.3940 ha         1 Q8Y       0.111000
     46 H18        -29.8680     3.8970     4.6710 ha         1 Q8Y       0.110500
     47 H19        -32.2330     3.1100     4.6260 ha         1 Q8Y       0.111000
     48 H20        -33.0260     1.4530     6.3120 ha         1 Q8Y       0.110500
     49 H21        -31.4600     0.5830     8.0380 ha         1 Q8Y       0.111000
     50 H22        -30.4540     4.2740    15.1770 h5         1 Q8Y       0.047100
     51 H23        -27.5280     3.0020    12.2100 hn         1 Q8Y       0.498000
@<TRIPOS>BOND
     1     1     6 1   
     2     1    10 1   
     3     1    28 1   
     4     1    29 1   
     5     2    10 1   
     6     2    24 2   
     7     2    30 1   
     8     3    21 ar  
     9     3    23 ar  
    10     3    24 1   
    11     4     5 1   
    12     4     9 1   
    13     4    31 1   
    14     4    32 1   
    15     5     7 1   
    16     5    28 1   
    17     5    33 1   
    18     6     7 1   
    19     6     8 1   
    20     6    34 1   
    21     7    11 1   
    22     7    35 1   
    23     8    36 1   
    24     9    37 1   
    25    10    21 1   
    26    11    38 1   
    27    12    13 1   
    28    12    27 1   
    29    12    39 1   
    30    12    40 1   
    31    13    14 1   
    32    13    41 1   
    33    13    42 1   
    34    14    15 1   
    35    14    43 1   
    36    14    44 1   
    37    15    16 ar  
    38    15    20 ar  
    39    16    17 ar  
    40    16    45 1   
    41    17    18 ar  
    42    17    46 1   
    43    18    19 ar  
    44    18    47 1   
    45    19    20 ar  
    46    19    48 1   
    47    20    49 1   
    48    21    25 ar  
    49    22    25 ar  
    50    22    26 ar  
    51    22    50 1   
    52    23    26 ar  
    53    23    27 1   
    54    27    51 1   
@<TRIPOS>SUBSTRUCTURE
     1 Q8Y         1 TEMP              0 ****  ****    0 ROOT
