@<TRIPOS>MOLECULE
Q8Y
   51    54     1     0     0
SMALL
abcg2


@<TRIPOS>ATOM
      1 C4         -33.1190     0.3590    14.9980 c5         1 Q8Y       0.319300
      2 C5         -31.4210    -0.1660    13.2000 cc         1 Q8Y       0.414700
      3 C6         -30.2520     1.6290    13.1860 ca         1 Q8Y      -0.087600
      4 C3         -33.7220    -2.9900    15.1360 c3         1 Q8Y       0.146600
      5 C2         -34.0250    -1.6630    15.7980 c5         1 Q8Y       0.133300
      6 C1         -34.4010     0.0740    14.2150 c5         1 Q8Y       0.140300
      7 C          -35.1650    -0.8480    15.1700 c5         1 Q8Y       0.112300
      8 O1         -35.0200     1.2960    13.8770 oh         1 Q8Y      -0.679000
      9 O2         -33.5040    -2.8010    13.7380 oh         1 Q8Y      -0.739000
     10 N          -31.9770     0.6510    14.1600 na         1 Q8Y      -0.296300
     11 O          -35.8270    -0.0390    16.1350 oh         1 Q8Y      -0.692000
     12 C10        -28.1340     1.7860    11.0320 c3         1 Q8Y       0.227800
     13 C11        -29.0850     2.0160     9.8580 c3         1 Q8Y      -0.104400
     14 C12        -28.8830     0.9830     8.7430 c3         1 Q8Y      -0.026100
     15 C13        -29.8410     1.1980     7.6020 ca         1 Q8Y      -0.078300
     16 C14        -29.4880     1.9920     6.5090 ca         1 Q8Y      -0.106500
     17 C15        -30.3920     2.2370     5.4810 ca         1 Q8Y      -0.110500
     18 C16        -31.6700     1.6880     5.5290 ca         1 Q8Y      -0.112000
     19 C17        -32.0340     0.8920     6.6120 ca         1 Q8Y      -0.110500
     20 C18        -31.1250     0.6510     7.6370 ca         1 Q8Y      -0.106500
     21 C7         -31.2330     1.8080    14.1670 ca         1 Q8Y       0.144500
     22 C8         -30.4990     3.8280    14.6790 ca         1 Q8Y       0.176900
     23 C9         -29.3570     2.7070    12.9970 ca         1 Q8Y       0.437900
     24 N1         -30.3940     0.3770    12.5990 nd         1 Q8Y      -0.564100
     25 N2         -31.4020     2.8840    14.9410 nb         1 Q8Y      -0.214000
     26 N3         -29.5200     3.8020    13.7760 nb         1 Q8Y      -0.302000
     27 N4         -28.3390     2.7330    12.1190 nu         1 Q8Y      -0.909100
     28 O3         -32.8600    -0.8020    15.7660 os         1 Q8Y      -0.450000
     29 H1         -33.2570     1.2310    15.6400 h2         1 Q8Y       0.126700
     30 H2         -31.8200    -1.1510    13.0120 h5         1 Q8Y       0.076800
     31 H3         -34.5700    -3.6610    15.3110 h1         1 Q8Y       0.039700
     32 H4         -32.8350    -3.4230    15.6100 h1         1 Q8Y       0.039700
     33 H5         -34.2580    -1.8660    16.8470 h1         1 Q8Y       0.074700
     34 H6         -34.1560    -0.5010    13.3220 h1         1 Q8Y       0.066700
     35 H7         -35.8770    -1.4860    14.6420 h1         1 Q8Y       0.058700
     36 H8         -35.6600     1.1330    13.1730 ho         1 Q8Y       0.509000
     37 H9         -33.2410    -3.6450    13.3530 ho         1 Q8Y       0.512000
     38 H10        -36.2910    -0.6230    16.7490 ho         1 Q8Y       0.501000
     39 H11        -28.2570     0.7760    11.4160 h1         1 Q8Y       0.064200
     40 H12        -27.0990     1.8950    10.7050 h1         1 Q8Y       0.064200
     41 H13        -28.9350     3.0230     9.4610 hc         1 Q8Y       0.053200
     42 H14        -30.1150     1.9610    10.2180 hc         1 Q8Y       0.053200
     43 H15        -29.0220    -0.0190     9.1590 hc         1 Q8Y       0.048200
     44 H16        -27.8540     1.0420     8.3790 hc         1 Q8Y       0.048200
     45 H17        -28.4930     2.4220     6.4650 ha         1 Q8Y       0.111000
     46 H18        -30.0980     2.8550     4.6410 ha         1 Q8Y       0.110500
     47 H19        -32.3750     1.8750     4.7280 ha         1 Q8Y       0.111000
     48 H20        -33.0250     0.4570     6.6560 ha         1 Q8Y       0.110500
     49 H21        -31.4150     0.0320     8.4790 ha         1 Q8Y       0.111000
     50 H22        -30.5690     4.7350    15.2710 h5         1 Q8Y       0.047100
     51 H23        -27.8600     3.6200    12.0600 hn         1 Q8Y       0.498000
@<TRIPOS>BOND
     1     1     6 1   
     2     1    10 1   
     3     1    28 1   
     4     1    29 1   
     5     2    10 1   
     6     2    24 2   
     7     2    30 1   
     8     3    21 ar  
     9     3    23 ar  
    10     3    24 1   
    11     4     5 1   
    12     4     9 1   
    13     4    31 1   
    14     4    32 1   
    15     5     7 1   
    16     5    28 1   
    17     5    33 1   
    18     6     7 1   
    19     6     8 1   
    20     6    34 1   
    21     7    11 1   
    22     7    35 1   
    23     8    36 1   
    24     9    37 1   
    25    10    21 1   
    26    11    38 1   
    27    12    13 1   
    28    12    27 1   
    29    12    39 1   
    30    12    40 1   
    31    13    14 1   
    32    13    41 1   
    33    13    42 1   
    34    14    15 1   
    35    14    43 1   
    36    14    44 1   
    37    15    16 ar  
    38    15    20 ar  
    39    16    17 ar  
    40    16    45 1   
    41    17    18 ar  
    42    17    46 1   
    43    18    19 ar  
    44    18    47 1   
    45    19    20 ar  
    46    19    48 1   
    47    20    49 1   
    48    21    25 ar  
    49    22    25 ar  
    50    22    26 ar  
    51    22    50 1   
    52    23    26 ar  
    53    23    27 1   
    54    27    51 1   
@<TRIPOS>SUBSTRUCTURE
     1 Q8Y         1 TEMP              0 ****  ****    0 ROOT
