@<TRIPOS>MOLECULE
Q8Z
   24    24     1     0     0
SMALL
No Charge or Current Charge


@<TRIPOS>ATOM
      1 C10         -8.1990   -14.7670   -16.5570 ca         1 Q8Z      -0.131500
      2 C13         -8.5200   -11.9880   -16.2650 ca         1 Q8Z      -0.009000
      3 C01         -9.9350   -13.0640   -12.6720 c3         1 Q8Z       0.150100
      4 C04        -10.2880    -9.6720   -12.9140 c3         1 Q8Z       0.141900
      5 C08         -8.0470   -12.7590   -15.1820 ca         1 Q8Z      -0.308500
      6 C09         -7.8860   -14.1530   -15.3320 ca         1 Q8Z      -0.009000
      7 C11         -8.6710   -13.9980   -17.6350 ca         1 Q8Z      -0.054000
      8 C12         -8.8310   -12.6100   -17.4870 ca         1 Q8Z      -0.131500
      9 N02         -9.1950   -11.8010   -12.8500 n3         1 Q8Z      -0.446000
     10 O03        -10.0930   -10.9090   -13.6210 os         1 Q8Z      -0.247300
     11 O06         -6.8680   -12.8740   -12.7740 o          1 Q8Z      -0.532500
     12 O07         -7.1800   -10.5910   -13.8730 o          1 Q8Z      -0.532500
     13 S05         -7.6550   -11.9580   -13.6110 sy         1 Q8Z       1.140600
     14 H1          -8.0750   -15.8420   -16.6720 ha         1 Q8Z       0.120500
     15 H2          -8.6530   -10.9120   -16.1620 ha         1 Q8Z       0.135500
     16 H3         -10.8730   -12.8830   -12.1320 h1         1 Q8Z       0.062033
     17 H4         -10.1850   -13.5190   -13.6390 h1         1 Q8Z       0.062033
     18 H5          -9.3470   -13.7860   -12.0900 h1         1 Q8Z       0.062033
     19 H6         -10.9580    -9.0120   -13.4790 h1         1 Q8Z       0.051367
     20 H7         -10.7380    -9.8530   -11.9300 h1         1 Q8Z       0.051367
     21 H8          -9.3350    -9.1480   -12.7700 h1         1 Q8Z       0.051367
     22 H9          -7.5230   -14.7640   -14.5070 ha         1 Q8Z       0.135500
     23 H10         -8.9120   -14.4760   -18.5820 ha         1 Q8Z       0.117000
     24 H11         -9.1970   -12.0140   -18.3200 ha         1 Q8Z       0.120500
@<TRIPOS>BOND
     1     1     6 ar  
     2     1     7 ar  
     3     1    14 1   
     4     2     5 ar  
     5     2     8 ar  
     6     2    15 1   
     7     3     9 1   
     8     3    16 1   
     9     3    17 1   
    10     3    18 1   
    11     4    10 1   
    12     4    19 1   
    13     4    20 1   
    14     4    21 1   
    15     5     6 ar  
    16     5    13 1   
    17     6    22 1   
    18     7     8 ar  
    19     7    23 1   
    20     8    24 1   
    21     9    10 1   
    22     9    13 1   
    23    11    13 2   
    24    12    13 2   
@<TRIPOS>SUBSTRUCTURE
     1 Q8Z         1 TEMP              0 ****  ****    0 ROOT
