@<TRIPOS>MOLECULE
Q8Z
   24    24     1     0     0
SMALL
abcg2


@<TRIPOS>ATOM
      1 C10         -8.3230   -14.7130   -16.5250 ca         1 Q8Z      -0.131500
      2 C13         -8.3960   -11.9290   -16.3130 ca         1 Q8Z      -0.009000
      3 C01         -9.8820   -13.0930   -12.5600 c3         1 Q8Z       0.150100
      4 C04        -10.3080    -9.7780   -12.9700 c3         1 Q8Z       0.141900
      5 C08         -8.0410   -12.7200   -15.2220 ca         1 Q8Z      -0.308500
      6 C09         -8.0040   -14.1100   -15.3150 ca         1 Q8Z      -0.009000
      7 C11         -8.6770   -13.9330   -17.6220 ca         1 Q8Z      -0.054000
      8 C12         -8.7110   -12.5450   -17.5170 ca         1 Q8Z      -0.131500
      9 N02         -9.2010   -11.8330   -12.8680 n3         1 Q8Z      -0.446000
     10 O03        -10.0680   -11.0190   -13.6460 os         1 Q8Z      -0.247300
     11 O06         -6.9210   -12.8340   -12.8480 o          1 Q8Z      -0.532500
     12 O07         -7.2770   -10.5980   -13.8930 o          1 Q8Z      -0.532500
     13 S05         -7.7150   -11.9510   -13.6670 sy         1 Q8Z       1.140600
     14 H1          -8.2930   -15.7910   -16.6110 ha         1 Q8Z       0.120500
     15 H2          -8.4160   -10.8530   -16.2190 ha         1 Q8Z       0.135500
     16 H3         -10.7200   -12.8570   -11.9070 h1         1 Q8Z       0.062033
     17 H4         -10.2480   -13.5890   -13.4630 h1         1 Q8Z       0.062033
     18 H5          -9.1880   -13.7420   -12.0310 h1         1 Q8Z       0.062033
     19 H6         -11.0100    -9.2420   -13.6060 h1         1 Q8Z       0.051367
     20 H7         -10.7520    -9.9600   -11.9900 h1         1 Q8Z       0.051367
     21 H8          -9.3830    -9.2100   -12.8680 h1         1 Q8Z       0.051367
     22 H9          -7.7230   -14.7060   -14.4580 ha         1 Q8Z       0.135500
     23 H10         -8.9240   -14.4070   -18.5630 ha         1 Q8Z       0.117000
     24 H11         -8.9830   -11.9410   -18.3720 ha         1 Q8Z       0.120500
@<TRIPOS>BOND
     1     1     6 ar  
     2     1     7 ar  
     3     1    14 1   
     4     2     5 ar  
     5     2     8 ar  
     6     2    15 1   
     7     3     9 1   
     8     3    16 1   
     9     3    17 1   
    10     3    18 1   
    11     4    10 1   
    12     4    19 1   
    13     4    20 1   
    14     4    21 1   
    15     5     6 ar  
    16     5    13 1   
    17     6    22 1   
    18     7     8 ar  
    19     7    23 1   
    20     8    24 1   
    21     9    10 1   
    22     9    13 1   
    23    11    13 2   
    24    12    13 2   
@<TRIPOS>SUBSTRUCTURE
     1 Q8Z         1 TEMP              0 ****  ****    0 ROOT
