@<TRIPOS>MOLECULE
Q90
   55    58     1     0     0
SMALL
abcg2


@<TRIPOS>ATOM
      1 C10        -20.3090   -14.6810    21.3340 cp         1 Q90      -0.072000
      2 C13        -18.3090   -14.5250    18.1520 ca         1 Q90      -0.077000
      3 C15        -18.6820   -13.5580    15.8610 c          1 Q90       0.723600
      4 C22        -22.7060   -14.8660    16.0330 ca         1 Q90      -0.277500
      5 C24        -22.1740   -16.3800    14.2570 ca         1 Q90      -0.126000
      6 C26        -22.3120   -18.8530    14.5790 cp         1 Q90      -0.017000
      7 C28        -23.1050   -21.1350    14.4780 ca         1 Q90      -0.119000
      8 C02        -21.0660   -15.3290    23.9350 ca         1 Q90       0.126000
      9 C03        -21.2350   -14.0340    23.4800 ca         1 Q90      -0.108000
     10 C04        -20.8620   -13.7060    22.1800 ca         1 Q90       0.193100
     11 C06        -19.9480   -11.6200    21.5320 c3         1 Q90       0.016600
     12 C07        -19.4560   -10.8730    22.7850 c          1 Q90       0.704000
     13 C11        -19.9190   -14.3930    19.9370 cp         1 Q90      -0.023000
     14 C12        -18.6750   -14.8030    19.4570 ca         1 Q90      -0.135000
     15 C14        -19.1550   -13.8500    17.2790 ca         1 Q90      -0.173600
     16 C18        -20.4130   -13.4510    17.7640 ca         1 Q90       0.263000
     17 C23        -22.2990   -15.0830    14.7220 ca         1 Q90      -0.004500
     18 C25        -22.4440   -17.4720    15.0860 cp         1 Q90      -0.017000
     19 C27        -23.2250   -19.8390    14.9570 ca         1 Q90      -0.098000
     20 C29        -22.0690   -21.4690    13.6160 ca         1 Q90      -0.124000
     21 C30        -21.1530   -20.4970    13.2360 ca         1 Q90      -0.119000
     22 C31        -21.2740   -19.2000    13.7120 ca         1 Q90      -0.098000
     23 C32        -22.8450   -17.2270    16.3990 ca         1 Q90      -0.126000
     24 C33        -22.9760   -15.9330    16.8780 ca         1 Q90      -0.004500
     25 C35        -20.7790   -13.7160    19.0800 ca         1 Q90      -0.124000
     26 C36        -20.1360   -15.9680    21.8420 ca         1 Q90      -0.095000
     27 C37        -20.5080   -16.3090    23.1310 ca         1 Q90      -0.156000
     28 N19        -21.2600   -12.7270    16.8990 nu         1 Q90      -0.884100
     29 O05        -21.0900   -12.4450    21.7520 os         1 Q90      -0.358100
     30 O08        -18.4380   -10.1850    22.5790 o          1 Q90      -0.734000
     31 O09        -20.0930   -11.0070    23.8420 o          1 Q90      -0.734000
     32 O16        -17.5880   -14.0140    15.5180 o          1 Q90      -0.702000
     33 O17        -19.4460   -12.8560    15.1380 o          1 Q90      -0.702000
     34 O21        -23.2920   -12.3490    15.5560 o          1 Q90      -0.565000
     35 O34        -23.5440   -13.2250    17.8900 o          1 Q90      -0.565000
     36 S20        -22.8130   -13.2000    16.6320 sy         1 Q90       1.128600
     37 CL01       -21.5450   -15.7240    25.5550 cl         1 Q90      -0.261000
     38 H131       -17.3360   -14.8360    17.7960 ha         1 Q90       0.123000
     39 H241       -21.8830   -16.5400    13.2270 ha         1 Q90       0.105500
     40 H281       -23.8280   -21.8840    14.7740 ha         1 Q90       0.102500
     41 H031       -21.6400   -13.2630    24.1190 ha         1 Q90       0.162000
     42 H061       -19.1200   -12.1980    21.1090 h1         1 Q90       0.044700
     43 H062       -20.2400   -10.8940    20.7700 h1         1 Q90       0.044700
     44 H121       -17.9830   -15.3160    20.1130 ha         1 Q90       0.098000
     45 H231       -22.0930   -14.2560    14.0560 ha         1 Q90       0.142500
     46 H271       -24.0500   -19.5900    15.6120 ha         1 Q90       0.121500
     47 H291       -21.9750   -22.4800    13.2430 ha         1 Q90       0.098000
     48 H301       -20.3370   -20.7490    12.5720 ha         1 Q90       0.102500
     49 H311       -20.5420   -18.4560    13.4230 ha         1 Q90       0.121500
     50 H321       -23.0430   -18.0530    17.0690 ha         1 Q90       0.105500
     51 H331       -23.2850   -15.7680    17.9000 ha         1 Q90       0.142500
     52 H351       -21.7380   -13.3810    19.4420 ha         1 Q90       0.149000
     53 H361       -19.7210   -16.7360    21.2010 ha         1 Q90       0.102000
     54 H371       -20.3770   -17.3190    23.4930 ha         1 Q90       0.102000
     55 H191       -20.7150   -12.5880    15.9960 hn         1 Q90       0.574000
@<TRIPOS>BOND
     1     1    10 ar  
     2     1    13 1   
     3     1    26 ar  
     4     2    14 ar  
     5     2    15 ar  
     6     2    38 1   
     7     3    15 1   
     8     3    32 1   
     9     3    33 1   
    10     4    17 ar  
    11     4    24 ar  
    12     4    36 1   
    13     5    17 ar  
    14     5    18 ar  
    15     5    39 1   
    16     6    18 1   
    17     6    19 ar  
    18     6    22 ar  
    19     7    19 ar  
    20     7    20 ar  
    21     7    40 1   
    22     8     9 ar  
    23     8    27 ar  
    24     8    37 1   
    25     9    10 ar  
    26     9    41 1   
    27    10    29 1   
    28    11    12 1   
    29    11    29 1   
    30    11    42 1   
    31    11    43 1   
    32    12    30 1   
    33    12    31 1   
    34    13    14 ar  
    35    13    25 ar  
    36    14    44 1   
    37    15    16 ar  
    38    16    25 ar  
    39    16    28 1   
    40    17    45 1   
    41    18    23 ar  
    42    19    46 1   
    43    20    21 ar  
    44    20    47 1   
    45    21    22 ar  
    46    21    48 1   
    47    22    49 1   
    48    23    24 ar  
    49    23    50 1   
    50    24    51 1   
    51    25    52 1   
    52    26    27 ar  
    53    26    53 1   
    54    27    54 1   
    55    28    36 1   
    56    28    55 1   
    57    34    36 2   
    58    35    36 2   
@<TRIPOS>SUBSTRUCTURE
     1 Q90         1 TEMP              0 ****  ****    0 ROOT
