@<TRIPOS>MOLECULE
Q90
   55    58     1     0     0
SMALL
No Charge or Current Charge


@<TRIPOS>ATOM
      1 C10        -20.2850   -14.9290    20.8050 cp         1 Q90      -0.072000
      2 C13        -18.0820   -14.0000    17.8240 ca         1 Q90      -0.077000
      3 C15        -18.4490   -12.6820    15.6950 c          1 Q90       0.723600
      4 C22        -22.6610   -14.5410    15.9570 ca         1 Q90      -0.277500
      5 C24        -22.0550   -16.3930    14.4950 ca         1 Q90      -0.126000
      6 C26        -22.3470   -18.8110    15.2190 cp         1 Q90      -0.017000
      7 C28        -23.2030   -21.1000    15.5020 ca         1 Q90      -0.119000
      8 C02        -21.2090   -16.1670    23.1910 ca         1 Q90       0.126000
      9 C03        -21.4920   -14.8160    22.9510 ca         1 Q90      -0.108000
     10 C04        -21.0190   -14.1950    21.7850 ca         1 Q90       0.193100
     11 C06        -20.2360   -11.8730    21.5820 c3         1 Q90       0.016600
     12 C07        -19.5800   -11.6150    22.9750 c          1 Q90       0.704000
     13 C11        -19.8290   -14.3390    19.5070 cp         1 Q90      -0.023000
     14 C12        -18.5130   -14.5430    19.0440 ca         1 Q90      -0.135000
     15 C14        -18.9610   -13.2450    17.0120 ca         1 Q90      -0.173600
     16 C18        -20.2930   -13.0490    17.4570 ca         1 Q90       0.263000
     17 C23        -22.1530   -15.0110    14.7310 ca         1 Q90      -0.004500
     18 C25        -22.4570   -17.3380    15.4730 cp         1 Q90      -0.017000
     19 C27        -23.3060   -19.7180    15.7390 ca         1 Q90      -0.098000
     20 C29        -22.1380   -21.6050    14.7400 ca         1 Q90      -0.124000
     21 C30        -21.1760   -20.7280    14.2150 ca         1 Q90      -0.119000
     22 C31        -21.2800   -19.3460    14.4520 ca         1 Q90      -0.098000
     23 C32        -22.9620   -16.8410    16.7000 ca         1 Q90      -0.126000
     24 C33        -23.0630   -15.4610    16.9430 ca         1 Q90      -0.004500
     25 C35        -20.7030   -13.5850    18.6930 ca         1 Q90      -0.124000
     26 C36        -20.0090   -16.2920    21.0790 ca         1 Q90      -0.095000
     27 C37        -20.4630   -16.9040    22.2600 ca         1 Q90      -0.156000
     28 N19        -21.1940   -12.3350    16.6790 nu         1 Q90      -0.884100
     29 O05        -21.3040   -12.8600    21.5880 os         1 Q90      -0.358100
     30 O08        -18.5760   -10.9160    23.0040 o          1 Q90      -0.734000
     31 O09        -20.0780   -12.0970    23.9840 o          1 Q90      -0.734000
     32 O16        -17.2400   -12.5940    15.5360 o          1 Q90      -0.702000
     33 O17        -19.2540   -12.3390    14.8390 o          1 Q90      -0.702000
     34 O21        -22.9440   -12.0540    15.0160 o          1 Q90      -0.565000
     35 O34        -23.5430   -12.4940    17.4730 o          1 Q90      -0.565000
     36 S20        -22.7500   -12.7760    16.2740 sy         1 Q90       1.128600
     37 Cl01       -21.7880   -16.9400    24.6600 cl         1 Q90      -0.261000
     38 H131       -17.0570   -14.1780    17.5080 ha         1 Q90       0.123000
     39 H241       -21.6710   -16.7330    13.5370 ha         1 Q90       0.105500
     40 H281       -23.9510   -21.7780    15.9070 ha         1 Q90       0.102500
     41 H031       -22.0610   -14.2410    23.6750 ha         1 Q90       0.162000
     42 H061       -19.4380   -12.1620    20.8880 h1         1 Q90       0.044700
     43 H062       -20.6320   -10.9100    21.2370 h1         1 Q90       0.044700
     44 H121       -17.8130   -15.1200    19.6440 ha         1 Q90       0.098000
     45 H231       -21.8300   -14.3120    13.9600 ha         1 Q90       0.142500
     46 H271       -24.1460   -19.3460    16.3210 ha         1 Q90       0.121500
     47 H291       -22.0580   -22.6740    14.5560 ha         1 Q90       0.098000
     48 H301       -20.3480   -21.1170    13.6270 ha         1 Q90       0.102500
     49 H311       -20.5170   -18.6850    14.0490 ha         1 Q90       0.121500
     50 H321       -23.2650   -17.5320    17.4820 ha         1 Q90       0.105500
     51 H331       -23.4470   -15.1150    17.9020 ha         1 Q90       0.142500
     52 H351       -21.7190   -13.4210    19.0360 ha         1 Q90       0.149000
     53 H361       -19.4540   -16.8860    20.3560 ha         1 Q90       0.102000
     54 H371       -20.2460   -17.9530    22.4470 ha         1 Q90       0.102000
     55 H191       -20.8010   -12.1130    15.7630 hn         1 Q90       0.574000
@<TRIPOS>BOND
     1     1    10 ar  
     2     1    13 1   
     3     1    26 ar  
     4     2    14 ar  
     5     2    15 ar  
     6     2    38 1   
     7     3    15 1   
     8     3    32 1   
     9     3    33 1   
    10     4    17 ar  
    11     4    24 ar  
    12     4    36 1   
    13     5    17 ar  
    14     5    18 ar  
    15     5    39 1   
    16     6    18 1   
    17     6    19 ar  
    18     6    22 ar  
    19     7    19 ar  
    20     7    20 ar  
    21     7    40 1   
    22     8     9 ar  
    23     8    27 ar  
    24     8    37 1   
    25     9    10 ar  
    26     9    41 1   
    27    10    29 1   
    28    11    12 1   
    29    11    29 1   
    30    11    42 1   
    31    11    43 1   
    32    12    30 1   
    33    12    31 1   
    34    13    14 ar  
    35    13    25 ar  
    36    14    44 1   
    37    15    16 ar  
    38    16    25 ar  
    39    16    28 1   
    40    17    45 1   
    41    18    23 ar  
    42    19    46 1   
    43    20    21 ar  
    44    20    47 1   
    45    21    22 ar  
    46    21    48 1   
    47    22    49 1   
    48    23    24 ar  
    49    23    50 1   
    50    24    51 1   
    51    25    52 1   
    52    26    27 ar  
    53    26    53 1   
    54    27    54 1   
    55    28    36 1   
    56    28    55 1   
    57    34    36 2   
    58    35    36 2   
@<TRIPOS>SUBSTRUCTURE
     1 Q90         1 TEMP              0 ****  ****    0 ROOT
