@<TRIPOS>MOLECULE
Q92
   29    31     1     0     0
SMALL
abcg2


@<TRIPOS>ATOM
      1 N           -4.3910    -1.3710     0.2890 nb         1 Q92      -0.661000
      2 O            4.0490    -1.9210    -1.0590 o          1 Q92      -0.718000
      3 C1           3.2790     0.1690    -0.2700 ca         1 Q92      -0.139600
      4 C10         -5.3780    -0.5790    -0.0380 ca         1 Q92       0.331900
      5 C11         -5.2120     0.7640    -0.4370 ca         1 Q92      -0.182000
      6 C12         -3.9500     1.2830    -0.4860 ca         1 Q92      -0.062000
      7 C13         -2.8540     0.4620    -0.1360 ca         1 Q92      -0.075000
      8 C14         -1.5200     0.9200    -0.1600 ca         1 Q92      -0.114000
      9 C15          1.9580    -0.2650    -0.2390 ca         1 Q92      -0.065000
     10 C2           3.5620     1.4760     0.1190 ca         1 Q92      -0.072000
     11 C3           2.5420     2.3240     0.5270 ca         1 Q92      -0.151000
     12 C4           1.2290     1.8800     0.5510 ca         1 Q92      -0.119000
     13 C5           0.9200     0.5740     0.1660 cp         1 Q92      -0.098000
     14 C6          -0.4760     0.0930     0.1830 cp         1 Q92       0.020000
     15 C7          -0.7680    -1.2430     0.5610 ca         1 Q92      -0.083000
     16 C8          -2.0500    -1.7140     0.5920 ca         1 Q92      -0.099000
     17 C9          -3.1320    -0.8740     0.2450 ca         1 Q92       0.255000
     18 O1           5.5460    -0.3030    -0.7290 o          1 Q92      -0.718000
     19 H5          -6.3760    -1.0010     0.0070 h4         1 Q92       0.005100
     20 H6          -6.0790     1.3580    -0.6940 ha         1 Q92       0.110000
     21 H7          -3.7770     2.3100    -0.7830 ha         1 Q92       0.112000
     22 H8          -1.3320     1.9390    -0.4750 ha         1 Q92       0.116000
     23 H9           1.7390    -1.2760    -0.5600 ha         1 Q92       0.131000
     24 H            4.5850     1.8260     0.1070 ha         1 Q92       0.129000
     25 H1           2.7710     3.3360     0.8370 ha         1 Q92       0.088000
     26 H2           0.4450     2.5460     0.8910 ha         1 Q92       0.086000
     27 H3           0.0430    -1.9010     0.8500 ha         1 Q92       0.133000
     28 H4          -2.2600    -2.7330     0.8910 ha         1 Q92       0.123000
     29 C            4.3910    -0.7690    -0.7270 c          1 Q92       0.712600
@<TRIPOS>BOND
     1     1     4 ar  
     2     1    17 ar  
     3     2    29 1   
     4     3     9 ar  
     5     3    10 ar  
     6     3    29 1   
     7     4     5 ar  
     8     4    19 1   
     9     5     6 ar  
    10     5    20 1   
    11     6     7 ar  
    12     6    21 1   
    13     7     8 ar  
    14     7    17 ar  
    15     8    14 ar  
    16     8    22 1   
    17     9    13 ar  
    18     9    23 1   
    19    10    11 ar  
    20    10    24 1   
    21    11    12 ar  
    22    11    25 1   
    23    12    13 ar  
    24    12    26 1   
    25    13    14 1   
    26    14    15 ar  
    27    15    16 ar  
    28    15    27 1   
    29    16    17 ar  
    30    16    28 1   
    31    18    29 1   
@<TRIPOS>SUBSTRUCTURE
     1 Q92         1 TEMP              0 ****  ****    0 ROOT
