@<TRIPOS>MOLECULE
Q92
   29    31     1     0     0
SMALL
No Charge or Current Charge


@<TRIPOS>ATOM
      1 N           -4.4450    -1.3830     0.2840 nb         1 Q92      -0.661000
      2 O            4.1930    -1.9030    -1.0230 o          1 Q92      -0.718000
      3 C1           3.3400     0.1710    -0.2740 ca         1 Q92      -0.139600
      4 C10         -5.4600    -0.5510    -0.0470 ca         1 Q92       0.331900
      5 C11         -5.2570     0.7850    -0.4260 ca         1 Q92      -0.182000
      6 C12         -3.9500     1.2920    -0.4660 ca         1 Q92      -0.062000
      7 C13         -2.8910     0.4330    -0.1220 ca         1 Q92      -0.075000
      8 C14         -1.5640     0.9020    -0.1490 ca         1 Q92      -0.114000
      9 C15          2.0000    -0.2860    -0.2410 ca         1 Q92      -0.065000
     10 C2           3.6070     1.5050     0.1080 ca         1 Q92      -0.072000
     11 C3           2.5640     2.3540     0.5090 ca         1 Q92      -0.151000
     12 C4           1.2420     1.8870     0.5360 ca         1 Q92      -0.119000
     13 C5           0.9320     0.5570     0.1620 cp         1 Q92      -0.098000
     14 C6          -0.4800     0.0560     0.1910 cp         1 Q92       0.020000
     15 C7          -0.7780    -1.2780     0.5600 ca         1 Q92      -0.083000
     16 C8          -2.1040    -1.7470     0.5880 ca         1 Q92      -0.099000
     17 C9          -3.1780    -0.9050     0.2490 ca         1 Q92       0.255000
     18 O1           5.6060    -0.3110    -0.7410 o          1 Q92      -0.718000
     19 H5          -6.4640    -0.9710    -0.0080 h4         1 Q92       0.005100
     20 H6          -6.1050     1.4130    -0.6840 ha         1 Q92       0.110000
     21 H7          -3.7660     2.3240    -0.7560 ha         1 Q92       0.112000
     22 H8          -1.3680     1.9290    -0.4480 ha         1 Q92       0.116000
     23 H9           1.7800    -1.3060    -0.5470 ha         1 Q92       0.131000
     24 H            4.6250     1.8890     0.0950 ha         1 Q92       0.129000
     25 H1           2.7820     3.3780     0.8040 ha         1 Q92       0.088000
     26 H2           0.4530     2.5600     0.8620 ha         1 Q92       0.086000
     27 H3           0.0240    -1.9550     0.8420 ha         1 Q92       0.133000
     28 H4          -2.3010    -2.7750     0.8790 ha         1 Q92       0.123000
     29 C            4.4660    -0.7520    -0.7130 c          1 Q92       0.712600
@<TRIPOS>BOND
     1     1     4 ar  
     2     1    17 ar  
     3     2    29 1   
     4     3     9 ar  
     5     3    10 ar  
     6     3    29 1   
     7     4     5 ar  
     8     4    19 1   
     9     5     6 ar  
    10     5    20 1   
    11     6     7 ar  
    12     6    21 1   
    13     7     8 ar  
    14     7    17 ar  
    15     8    14 ar  
    16     8    22 1   
    17     9    13 ar  
    18     9    23 1   
    19    10    11 ar  
    20    10    24 1   
    21    11    12 ar  
    22    11    25 1   
    23    12    13 ar  
    24    12    26 1   
    25    13    14 1   
    26    14    15 ar  
    27    15    16 ar  
    28    15    27 1   
    29    16    17 ar  
    30    16    28 1   
    31    18    29 1   
@<TRIPOS>SUBSTRUCTURE
     1 Q92         1 TEMP              0 ****  ****    0 ROOT
