@<TRIPOS>MOLECULE
Q94
   40    42     1     0     0
SMALL
No Charge or Current Charge


@<TRIPOS>ATOM
      1 C14         15.4400    18.9900    41.6480 cc         1 Q94       0.659300
      2 C19         11.0530    20.5370    41.2160 c          1 Q94       0.605100
      3 N16         14.1290    19.1780    39.8320 nd         1 Q94      -0.359000
      4 N18         12.0550    20.0350    40.4250 ns         1 Q94      -0.470400
      5 C01         25.6750    20.0930    46.6540 c3         1 Q94      -0.171100
      6 C02         24.3360    20.1580    45.9320 c          1 Q94       0.607100
      7 C04         22.1850    18.9250    45.8150 cc         1 Q94       0.503300
      8 C07         20.0280    18.7480    44.8700 cc         1 Q94       0.623300
      9 C09         17.7310    17.8640    44.2760 c5         1 Q94       0.221500
     10 C10         17.9510    16.9170    43.0610 c5         1 Q94      -0.115400
     11 C11         17.5700    17.7770    41.8160 c5         1 Q94       0.235800
     12 C13         16.4230    18.6180    43.8600 c5         1 Q94       0.222800
     13 C17         13.3240    19.6360    40.7760 cc         1 Q94       0.488300
     14 C20          9.7710    20.8740    40.4650 c3         1 Q94      -0.172100
     15 N05         21.5190    17.8840    46.2930 nd         1 Q94      -0.360000
     16 N06         20.2560    17.7800    45.7390 nd         1 Q94      -0.403000
     17 N08         18.8460    18.8550    44.1900 nu         1 Q94      -0.902100
     18 N12         16.5940    18.7540    42.3820 nh         1 Q94      -0.784300
     19 N15         15.3660    18.8180    40.3350 nd         1 Q94      -0.417000
     20 O21         11.1550    20.7080    42.4210 o          1 Q94      -0.575100
     21 O24         24.0850    21.0360    45.1210 o          1 Q94      -0.574100
     22 S22         14.0140    19.6700    42.3720 ss         1 Q94      -0.231800
     23 S23         21.3170    19.8730    44.6400 ss         1 Q94      -0.223800
     24 H1          11.8200    19.9500    39.4470 hn         1 Q94       0.341500
     25 H2          26.3510    20.9030    46.3610 hc         1 Q94       0.070367
     26 H3          25.4980    20.0850    47.7360 hc         1 Q94       0.070367
     27 H4          26.1260    19.1090    46.4830 hc         1 Q94       0.070367
     28 H5          17.6500    17.3480    45.2450 h1         1 Q94       0.076700
     29 H6          17.2830    16.0530    43.1380 hc         1 Q94       0.062200
     30 H7          18.9710    16.5200    43.0000 hc         1 Q94       0.062200
     31 H8          17.1600    17.1420    41.0180 h1         1 Q94       0.061700
     32 H9          18.4470    18.2990    41.4100 h1         1 Q94       0.061700
     33 H10         16.3290    19.5860    44.3700 h1         1 Q94       0.070700
     34 H11         15.5430    18.0110    44.1130 h1         1 Q94       0.070700
     35 H12          8.9900    21.2720    41.1230 hc         1 Q94       0.068700
     36 H13         10.0050    21.5680    39.6500 hc         1 Q94       0.068700
     37 H14          9.4290    19.9840    39.9250 hc         1 Q94       0.068700
     38 H15         23.8100    18.5040    46.9580 hn         1 Q94       0.344500
     39 H16         18.8030    19.6170    43.5170 hn         1 Q94       0.494000
     40 N03         23.4600    19.1580    46.2730 ns         1 Q94      -0.471400
@<TRIPOS>BOND
     1     1    18 1   
     2     1    19 2   
     3     1    22 1   
     4     2     4 1   
     5     2    14 1   
     6     2    20 2   
     7     3    13 2   
     8     3    19 1   
     9     4    13 1   
    10     4    24 1   
    11     5     6 1   
    12     5    25 1   
    13     5    26 1   
    14     5    27 1   
    15     6    21 2   
    16     6    40 1   
    17     7    15 2   
    18     7    23 1   
    19     7    40 1   
    20     8    16 2   
    21     8    17 1   
    22     8    23 1   
    23     9    10 1   
    24     9    12 1   
    25     9    17 1   
    26     9    28 1   
    27    10    11 1   
    28    10    29 1   
    29    10    30 1   
    30    11    18 1   
    31    11    31 1   
    32    11    32 1   
    33    12    18 1   
    34    12    33 1   
    35    12    34 1   
    36    13    22 1   
    37    14    35 1   
    38    14    36 1   
    39    14    37 1   
    40    15    16 1   
    41    17    39 1   
    42    38    40 1   
@<TRIPOS>SUBSTRUCTURE
     1 Q94         1 TEMP              0 ****  ****    0 ROOT
