@<TRIPOS>MOLECULE
Q94
   40    42     1     0     0
SMALL
abcg2


@<TRIPOS>ATOM
      1 C14         15.6450    18.2670    41.5660 cc         1 Q94       0.659300
      2 C19         12.4000    21.3630    42.2240 c          1 Q94       0.605100
      3 N16         14.3080    19.2070    40.0800 nd         1 Q94      -0.359000
      4 N18         12.8710    20.7190    41.1220 ns         1 Q94      -0.470400
      5 C01         23.9860    21.6670    46.7250 c3         1 Q94      -0.171100
      6 C02         23.1700    20.7940    45.8200 c          1 Q94       0.607100
      7 C04         21.1230    19.5200    45.6740 cc         1 Q94       0.503300
      8 C07         19.8940    18.0990    44.2400 cc         1 Q94       0.623300
      9 C09         18.2030    16.5350    43.4710 c5         1 Q94       0.221500
     10 C10         17.9790    15.6170    42.2740 c5         1 Q94      -0.115400
     11 C11         17.3070    16.5090    41.2360 c5         1 Q94       0.235800
     12 C13         16.9340    17.3870    43.4700 c5         1 Q94       0.222800
     13 C17         13.8880    19.7940    41.1430 cc         1 Q94       0.488300
     14 C20         11.3040    22.3540    41.9720 c3         1 Q94      -0.172100
     15 N05         20.0200    19.1190    46.1960 nd         1 Q94      -0.360000
     16 N06         19.3090    18.2980    45.3790 nd         1 Q94      -0.403000
     17 N08         19.3840    17.3490    43.2400 nu         1 Q94      -0.902100
     18 N12         16.6010    17.4770    42.0610 nh         1 Q94      -0.784300
     19 N15         15.3170    18.3280    40.3080 nd         1 Q94      -0.417000
     20 O21         12.8680    21.1450    43.3280 o          1 Q94      -0.575100
     21 O24         23.5140    20.4870    44.6920 o          1 Q94      -0.574100
     22 S22         14.7060    19.3220    42.6020 ss         1 Q94      -0.231800
     23 S23         21.4200    18.9330    44.0650 ss         1 Q94      -0.223800
     24 H1          12.4670    20.9070    40.2160 hn         1 Q94       0.341500
     25 H2          24.2270    22.5960    46.2110 hc         1 Q94       0.070367
     26 H3          23.4870    21.9040    47.6620 hc         1 Q94       0.070367
     27 H4          24.9270    21.1650    46.9510 hc         1 Q94       0.070367
     28 H5          18.2940    15.9770    44.4070 h1         1 Q94       0.076700
     29 H6          17.3050    14.8120    42.5730 hc         1 Q94       0.062200
     30 H7          18.8960    15.1560    41.9080 hc         1 Q94       0.062200
     31 H8          16.6160    15.9560    40.5990 h1         1 Q94       0.061700
     32 H9          18.0300    17.0080    40.5840 h1         1 Q94       0.061700
     33 H10         17.0980    18.3720    43.9120 h1         1 Q94       0.070700
     34 H11         16.1450    16.8860    44.0400 h1         1 Q94       0.070700
     35 H12         10.5260    22.2360    42.7240 hc         1 Q94       0.068700
     36 H13         11.7080    23.3630    42.0710 hc         1 Q94       0.068700
     37 H14         10.8580    22.2610    40.9830 hc         1 Q94       0.068700
     38 H15         21.7290    20.6010    47.2810 hn         1 Q94       0.344500
     39 H16         20.0370    17.0050    42.5530 hn         1 Q94       0.494000
     40 N03         21.9970    20.3420    46.3420 ns         1 Q94      -0.471400
@<TRIPOS>BOND
     1     1    18 1   
     2     1    19 2   
     3     1    22 1   
     4     2     4 1   
     5     2    14 1   
     6     2    20 2   
     7     3    13 2   
     8     3    19 1   
     9     4    13 1   
    10     4    24 1   
    11     5     6 1   
    12     5    25 1   
    13     5    26 1   
    14     5    27 1   
    15     6    21 2   
    16     6    40 1   
    17     7    15 2   
    18     7    23 1   
    19     7    40 1   
    20     8    16 2   
    21     8    17 1   
    22     8    23 1   
    23     9    10 1   
    24     9    12 1   
    25     9    17 1   
    26     9    28 1   
    27    10    11 1   
    28    10    29 1   
    29    10    30 1   
    30    11    18 1   
    31    11    31 1   
    32    11    32 1   
    33    12    18 1   
    34    12    33 1   
    35    12    34 1   
    36    13    22 1   
    37    14    35 1   
    38    14    36 1   
    39    14    37 1   
    40    15    16 1   
    41    17    39 1   
    42    38    40 1   
@<TRIPOS>SUBSTRUCTURE
     1 Q94         1 TEMP              0 ****  ****    0 ROOT
