@<TRIPOS>MOLECULE
Q95
   31    32     1     0     0
SMALL
abcg2


@<TRIPOS>ATOM
      1 C02         -7.6210    -0.1780    31.0880 c3         1 Q95       0.195100
      2 C03         -6.7410    -1.3670    31.3570 ca         1 Q95      -0.070300
      3 C04         -5.9770    -1.9210    30.3350 ca         1 Q95      -0.104000
      4 C05         -5.1600    -3.0210    30.5530 ca         1 Q95      -0.114000
      5 C06         -5.1090    -3.5900    31.8170 ca         1 Q95      -0.102000
      6 C07         -5.8700    -3.0620    32.8490 ca         1 Q95      -0.108000
      7 C08         -6.6820    -1.9530    32.6280 ca         1 Q95      -0.080000
      8 C10         -6.6890    -1.6230    35.3630 ca         1 Q95      -0.154000
      9 C11         -5.5490    -0.8570    35.5990 ca         1 Q95      -0.063000
     10 C12         -4.7790    -1.0730    36.7300 ca         1 Q95      -0.128000
     11 C13         -5.1630    -2.0480    37.6400 ca         1 Q95      -0.086000
     12 C14         -6.3030    -2.8030    37.4080 ca         1 Q95      -0.127000
     13 C15         -7.0860    -2.6110    36.2700 ca         1 Q95      -0.027300
     14 C16         -8.3050    -3.4560    36.0450 c3         1 Q95      -0.050800
     15 N01         -9.0180    -0.5250    31.2990 n8         1 Q95      -0.997200
     16 S09         -7.6800    -1.2680    33.9300 ss         1 Q95       0.078000
     17 H1          -7.3660     0.6220    31.7890 h1         1 Q95       0.039200
     18 H2          -7.4030     0.2050    30.0830 h1         1 Q95       0.039200
     19 H3          -6.0220    -1.4720    29.3500 ha         1 Q95       0.108000
     20 H4          -4.5710    -3.4300    29.7430 ha         1 Q95       0.113000
     21 H5          -4.4810    -4.4520    32.0050 ha         1 Q95       0.112000
     22 H6          -5.8230    -3.5160    33.8300 ha         1 Q95       0.123000
     23 H7          -5.2660    -0.0910    34.8880 ha         1 Q95       0.123000
     24 H8          -3.8930    -0.4770    36.9040 ha         1 Q95       0.115000
     25 H9          -4.5740    -2.2230    38.5320 ha         1 Q95       0.113000
     26 H10         -6.5920    -3.5640    38.1230 ha         1 Q95       0.112000
     27 H11         -8.2750    -3.9500    35.0730 hc         1 Q95       0.049367
     28 H12         -8.3870    -4.2270    36.8100 hc         1 Q95       0.049367
     29 H13         -9.2190    -2.8620    36.0720 hc         1 Q95       0.049367
     30 H14         -9.5910     0.3060    31.2390 hn         1 Q95       0.397500
     31 H15         -9.3300    -1.1430    30.5600 hn         1 Q95       0.397500
@<TRIPOS>BOND
     1     1     2 1   
     2     1    15 1   
     3     1    17 1   
     4     1    18 1   
     5     2     3 ar  
     6     2     7 ar  
     7     3     4 ar  
     8     3    19 1   
     9     4     5 ar  
    10     4    20 1   
    11     5     6 ar  
    12     5    21 1   
    13     6     7 ar  
    14     6    22 1   
    15     7    16 1   
    16     8     9 ar  
    17     8    13 ar  
    18     8    16 1   
    19     9    10 ar  
    20     9    23 1   
    21    10    11 ar  
    22    10    24 1   
    23    11    12 ar  
    24    11    25 1   
    25    12    13 ar  
    26    12    26 1   
    27    13    14 1   
    28    14    27 1   
    29    14    28 1   
    30    14    29 1   
    31    15    30 1   
    32    15    31 1   
@<TRIPOS>SUBSTRUCTURE
     1 Q95         1 TEMP              0 ****  ****    0 ROOT
