@<TRIPOS>MOLECULE
Q95
   31    32     1     0     0
SMALL
No Charge or Current Charge


@<TRIPOS>ATOM
      1 C02         -7.6420    -0.1080    31.3150 c3         1 Q95       0.195100
      2 C03         -6.7800    -1.3610    31.4700 ca         1 Q95      -0.070300
      3 C04         -5.8760    -1.6990    30.4410 ca         1 Q95      -0.104000
      4 C05         -5.0580    -2.8360    30.5490 ca         1 Q95      -0.114000
      5 C06         -5.1350    -3.6490    31.6900 ca         1 Q95      -0.102000
      6 C07         -6.0300    -3.3250    32.7210 ca         1 Q95      -0.108000
      7 C08         -6.8520    -2.1840    32.6220 ca         1 Q95      -0.080000
      8 C10         -6.8480    -1.8680    35.3550 ca         1 Q95      -0.154000
      9 C11         -5.6650    -1.1060    35.3040 ca         1 Q95      -0.063000
     10 C12         -4.7590    -1.1310    36.3770 ca         1 Q95      -0.128000
     11 C13         -5.0330    -1.9170    37.5070 ca         1 Q95      -0.086000
     12 C14         -6.2140    -2.6770    37.5640 ca         1 Q95      -0.127000
     13 C15         -7.1300    -2.6590    36.4920 ca         1 Q95      -0.027300
     14 C16         -8.4020    -3.4950    36.5740 c3         1 Q95      -0.050800
     15 N01         -8.9520    -0.4120    30.7050 n8         1 Q95      -0.997200
     16 S09         -7.9850    -1.8130    33.9650 ss         1 Q95       0.078000
     17 H1          -7.8010     0.3750    32.2890 h1         1 Q95       0.039200
     18 H2          -7.1190     0.6150    30.6730 h1         1 Q95       0.039200
     19 H3          -5.8070    -1.0760    29.5520 ha         1 Q95       0.108000
     20 H4          -4.3640    -3.0850    29.7490 ha         1 Q95       0.113000
     21 H5          -4.5030    -4.5310    31.7740 ha         1 Q95       0.112000
     22 H6          -6.0870    -3.9610    33.6010 ha         1 Q95       0.123000
     23 H7          -5.4460    -0.4930    34.4320 ha         1 Q95       0.123000
     24 H8          -3.8460    -0.5420    36.3320 ha         1 Q95       0.115000
     25 H9          -4.3320    -1.9370    38.3390 ha         1 Q95       0.113000
     26 H10         -6.4160    -3.2810    38.4450 ha         1 Q95       0.112000
     27 H11         -8.4450    -4.2260    35.7580 hc         1 Q95       0.049367
     28 H12         -8.4640    -4.0520    37.5160 hc         1 Q95       0.049367
     29 H13         -9.2950    -2.8620    36.5090 hc         1 Q95       0.049367
     30 H14         -9.4470     0.4680    30.5240 hn         1 Q95       0.397500
     31 H15         -8.7940    -0.8020    29.7690 hn         1 Q95       0.397500
@<TRIPOS>BOND
     1     1     2 1   
     2     1    15 1   
     3     1    17 1   
     4     1    18 1   
     5     2     3 ar  
     6     2     7 ar  
     7     3     4 ar  
     8     3    19 1   
     9     4     5 ar  
    10     4    20 1   
    11     5     6 ar  
    12     5    21 1   
    13     6     7 ar  
    14     6    22 1   
    15     7    16 1   
    16     8     9 ar  
    17     8    13 ar  
    18     8    16 1   
    19     9    10 ar  
    20     9    23 1   
    21    10    11 ar  
    22    10    24 1   
    23    11    12 ar  
    24    11    25 1   
    25    12    13 ar  
    26    12    26 1   
    27    13    14 1   
    28    14    27 1   
    29    14    28 1   
    30    14    29 1   
    31    15    30 1   
    32    15    31 1   
@<TRIPOS>SUBSTRUCTURE
     1 Q95         1 TEMP              0 ****  ****    0 ROOT
