@<TRIPOS>MOLECULE
Q96
   27    27     1     0     0
SMALL
abcg2


@<TRIPOS>ATOM
      1 C01        -14.7850    19.1760   -14.1560 c3         1 Q96       0.193100
      2 C03        -13.2110    17.4240   -14.8880 ca         1 Q96       0.331000
      3 C04        -12.6900    16.1120   -14.6950 ca         1 Q96       0.180000
      4 C06        -11.5930    15.7000   -15.4310 ca         1 Q96      -0.048000
      5 C07        -11.0090    16.5530   -16.3750 ca         1 Q96      -0.350500
      6 C08        -11.5230    17.8250   -16.5890 ca         1 Q96       0.011000
      7 C09        -12.6190    18.2510   -15.8490 ca         1 Q96      -0.190000
      8 C14         -8.0330    17.6450   -15.7410 c3         1 Q96       0.175100
      9 N02        -14.2990    17.8090   -14.1420 nu         1 Q96      -0.949200
     10 N05        -13.2740    15.2970   -13.7190 nv         1 Q96      -1.066000
     11 N13         -8.2730    16.2800   -16.2250 n7         1 Q96      -0.848300
     12 O11         -9.3730    16.8840   -18.3720 o          1 Q96      -0.544500
     13 O12         -9.6190    14.5940   -17.4150 o          1 Q96      -0.544500
     14 S10         -9.5630    16.0270   -17.2230 sy         1 Q96       1.167600
     15 H1         -15.6120    19.2540   -13.4530 h1         1 Q96       0.040367
     16 H2         -14.0130    19.9020   -13.8740 h1         1 Q96       0.040367
     17 H3         -15.1550    19.4400   -15.1490 h1         1 Q96       0.040367
     18 H4         -11.2010    14.7020   -15.2830 ha         1 Q96       0.126000
     19 H5         -11.0720    18.4810   -17.3200 ha         1 Q96       0.137000
     20 H6         -13.0080    19.2460   -16.0110 ha         1 Q96       0.120000
     21 H7          -7.1070    17.6350   -15.1690 h1         1 Q96       0.051367
     22 H8          -7.9110    18.3120   -16.5920 h1         1 Q96       0.051367
     23 H9          -8.8430    18.0140   -15.1060 h1         1 Q96       0.051367
     24 H10        -14.3860    17.3410   -13.2520 hn         1 Q96       0.481000
     25 H11        -14.2870    15.2930   -13.7370 hn         1 Q96       0.437500
     26 H12        -12.9250    14.3480   -13.7290 hn         1 Q96       0.437500
     27 H13         -8.2750    15.5870   -15.4830 hn         1 Q96       0.469000
@<TRIPOS>BOND
     1     1     9 1   
     2     1    15 1   
     3     1    16 1   
     4     1    17 1   
     5     2     3 ar  
     6     2     7 ar  
     7     2     9 1   
     8     3     4 ar  
     9     3    10 1   
    10     4     5 ar  
    11     4    18 1   
    12     5     6 ar  
    13     5    14 1   
    14     6     7 ar  
    15     6    19 1   
    16     7    20 1   
    17     8    11 1   
    18     8    21 1   
    19     8    22 1   
    20     8    23 1   
    21     9    24 1   
    22    10    25 1   
    23    10    26 1   
    24    11    14 1   
    25    11    27 1   
    26    12    14 2   
    27    13    14 2   
@<TRIPOS>SUBSTRUCTURE
     1 Q96         1 TEMP              0 ****  ****    0 ROOT
