@<TRIPOS>MOLECULE
Q96
   27    27     1     0     0
SMALL
No Charge or Current Charge


@<TRIPOS>ATOM
      1 C01        -15.0770    19.2540   -14.4220 c3         1 Q96       0.193100
      2 C03        -13.0840    17.6560   -14.8340 ca         1 Q96       0.331000
      3 C04        -12.5640    16.3420   -14.5790 ca         1 Q96       0.180000
      4 C06        -11.4990    15.8660   -15.3690 ca         1 Q96      -0.048000
      5 C07        -10.9540    16.6560   -16.4040 ca         1 Q96      -0.350500
      6 C08        -11.4750    17.9390   -16.6530 ca         1 Q96       0.011000
      7 C09        -12.5310    18.4310   -15.8700 ca         1 Q96      -0.190000
      8 C14         -8.1890    16.8870   -15.2600 c3         1 Q96       0.175100
      9 N02        -14.1250    18.1920   -14.0450 nu         1 Q96      -0.949200
     10 N05        -13.0770    15.5010   -13.5880 nv         1 Q96      -1.066000
     11 N13         -8.2910    16.8420   -16.7320 n7         1 Q96      -0.848300
     12 O11         -9.7140    16.5850   -18.7610 o          1 Q96      -0.544500
     13 O12         -9.3630    14.6190   -17.1430 o          1 Q96      -0.544500
     14 S10         -9.5900    16.0410   -17.4070 sy         1 Q96       1.167600
     15 H1         -15.8080    19.4170   -13.6180 h1         1 Q96       0.040367
     16 H2         -14.5530    20.2010   -14.6040 h1         1 Q96       0.040367
     17 H3         -15.6230    18.9750   -15.3340 h1         1 Q96       0.040367
     18 H4         -11.0990    14.8730   -15.1770 ha         1 Q96       0.126000
     19 H5         -11.0580    18.5610   -17.4440 ha         1 Q96       0.137000
     20 H6         -12.9080    19.4290   -16.0700 ha         1 Q96       0.120000
     21 H7          -7.2410    17.3490   -14.9550 h1         1 Q96       0.051367
     22 H8          -9.0000    17.4820   -14.8200 h1         1 Q96       0.051367
     23 H9          -8.2270    15.8790   -14.8240 h1         1 Q96       0.051367
     24 H10        -14.3330    17.6650   -13.1960 hn         1 Q96       0.481000
     25 H11        -14.0200    15.6600   -13.2410 hn         1 Q96       0.437500
     26 H12        -12.7380    14.5420   -13.5260 hn         1 Q96       0.437500
     27 H13         -7.5200    16.2870   -17.1020 hn         1 Q96       0.469000
@<TRIPOS>BOND
     1     1     9 1   
     2     1    15 1   
     3     1    16 1   
     4     1    17 1   
     5     2     3 ar  
     6     2     7 ar  
     7     2     9 1   
     8     3     4 ar  
     9     3    10 1   
    10     4     5 ar  
    11     4    18 1   
    12     5     6 ar  
    13     5    14 1   
    14     6     7 ar  
    15     6    19 1   
    16     7    20 1   
    17     8    11 1   
    18     8    21 1   
    19     8    22 1   
    20     8    23 1   
    21     9    24 1   
    22    10    25 1   
    23    10    26 1   
    24    11    14 1   
    25    11    27 1   
    26    12    14 2   
    27    13    14 2   
@<TRIPOS>SUBSTRUCTURE
     1 Q96         1 TEMP              0 ****  ****    0 ROOT
