@<TRIPOS>MOLECULE
Q97
   51    53     1     0     0
SMALL
No Charge or Current Charge


@<TRIPOS>ATOM
      1 CAA          5.0340     4.8360     0.2330 c3         1 Q97      -0.095100
      2 CAB         -2.6340    -2.7670     1.5750 c3         1 Q97      -0.086100
      3 CAE          2.1910    -3.9700     0.9510 ca         1 Q97      -0.179500
      4 CAF          2.7380    -2.6520    -1.0120 ca         1 Q97      -0.179500
      5 CAG         -4.0850     1.6300     0.9100 ca         1 Q97      -0.178500
      6 CAH         -4.5050     0.5810    -1.2420 ca         1 Q97      -0.178500
      7 CAI          1.0490     2.6080    -1.1210 ca         1 Q97      -0.178500
      8 CAJ          2.1180     1.5800     0.8050 ca         1 Q97      -0.178500
      9 CAK          0.9200    -3.3720     1.0030 ca         1 Q97      -0.057500
     10 CAL          1.4670    -2.0530    -0.9620 ca         1 Q97      -0.057500
     11 CAM         -2.8100     1.0370     0.9500 ca         1 Q97      -0.060500
     12 CAN         -3.2310    -0.0130    -1.2040 ca         1 Q97      -0.060500
     13 CAO          0.0350     1.6350    -1.0820 ca         1 Q97      -0.057500
     14 CAP          1.1030     0.6080     0.8440 ca         1 Q97      -0.057500
     15 CAQ          4.1720     3.6290     0.6360 c3         1 Q97       0.165600
     16 CAR         -1.9390    -2.7640     0.1970 c3         1 Q97      -0.038200
     17 OAS          3.0610     3.5660    -0.2740 os         1 Q97      -0.350100
     18 CAU         -1.0220    -0.4100    -0.0570 ce         1 Q97       0.002600
     19 CAV          3.0990    -3.6100    -0.0530 ca         1 Q97       0.139100
     20 CAW         -4.9310     1.3990    -0.1860 ca         1 Q97       0.139100
     21 CAX          2.0930     2.5860    -0.1840 ca         1 Q97       0.148100
     22 CAY          0.5450    -2.4030     0.0470 ca         1 Q97      -0.089800
     23 CAZ         -2.3810     0.2040    -0.1020 ca         1 Q97      -0.085800
     24 CBA          0.0590     0.6230    -0.1020 ca         1 Q97      -0.091800
     25 HAA          5.8980     4.9240     0.9020 hc         1 Q97       0.046700
     26 HAAA         5.4040     4.7220    -0.7930 hc         1 Q97       0.046700
     27 HAAB         4.4540     5.7640     0.2970 hc         1 Q97       0.046700
     28 HAB         -3.4170    -3.5340     1.6040 hc         1 Q97       0.034700
     29 HABA        -1.9190    -2.9770     2.3780 hc         1 Q97       0.034700
     30 HABB        -3.1010    -1.7970     1.7790 hc         1 Q97       0.034700
     31 HOAC         4.8220    -3.8260    -0.8560 ho         1 Q97       0.464000
     32 HOAD        -6.2920     2.5040     0.5820 ho         1 Q97       0.464000
     33 HAE          2.4710    -4.7120     1.6950 ha         1 Q97       0.120000
     34 HAF          3.4340    -2.3670    -1.7970 ha         1 Q97       0.120000
     35 HAG         -4.4040     2.2660     1.7320 ha         1 Q97       0.120500
     36 HAH         -5.1580     0.4080    -2.0930 ha         1 Q97       0.120500
     37 HAI          1.0260     3.3820    -1.8830 ha         1 Q97       0.121000
     38 HAJ          2.9080     1.5360     1.5480 ha         1 Q97       0.121000
     39 HAK          0.2340    -3.6580     1.7960 ha         1 Q97       0.117500
     40 HAL          1.1960    -1.3170    -1.7160 ha         1 Q97       0.117500
     41 HAM         -2.1550     1.2180     1.7990 ha         1 Q97       0.117500
     42 HAN         -2.9010    -0.6370    -2.0310 ha         1 Q97       0.117500
     43 HAO         -0.7650     1.6650    -1.8180 ha         1 Q97       0.118000
     44 HAP          1.1260    -0.1590     1.6160 ha         1 Q97       0.118000
     45 HAQ          4.7760     2.7140     0.5780 h1         1 Q97       0.033700
     46 HAQA         3.8240     3.7580     1.6690 h1         1 Q97       0.033700
     47 HAR         -1.5850    -3.7810    -0.0120 hc         1 Q97       0.049200
     48 HARA        -2.6940    -2.5730    -0.5730 hc         1 Q97       0.049200
     49 OAD         -6.1670     1.9700    -0.2320 oh         1 Q97      -0.534100
     50 CAT         -0.7910    -1.7560     0.0870 cf         1 Q97      -0.034400
     51 OAC          4.3280    -4.1960    -0.0940 oh         1 Q97      -0.534100
@<TRIPOS>BOND
     1     1    15 1   
     2     1    25 1   
     3     1    26 1   
     4     1    27 1   
     5     2    16 1   
     6     2    28 1   
     7     2    29 1   
     8     2    30 1   
     9     3     9 ar  
    10     3    19 ar  
    11     3    33 1   
    12     4    10 ar  
    13     4    19 ar  
    14     4    34 1   
    15     5    11 ar  
    16     5    20 ar  
    17     5    35 1   
    18     6    12 ar  
    19     6    20 ar  
    20     6    36 1   
    21     7    13 ar  
    22     7    21 ar  
    23     7    37 1   
    24     8    14 ar  
    25     8    21 ar  
    26     8    38 1   
    27     9    22 ar  
    28     9    39 1   
    29    10    22 ar  
    30    10    40 1   
    31    11    23 ar  
    32    11    41 1   
    33    12    23 ar  
    34    12    42 1   
    35    13    24 ar  
    36    13    43 1   
    37    14    24 ar  
    38    14    44 1   
    39    15    17 1   
    40    15    45 1   
    41    15    46 1   
    42    16    47 1   
    43    16    48 1   
    44    16    50 1   
    45    17    21 1   
    46    18    23 1   
    47    18    24 1   
    48    18    50 2   
    49    19    51 1   
    50    20    49 1   
    51    22    50 1   
    52    31    51 1   
    53    32    49 1   
@<TRIPOS>SUBSTRUCTURE
     1 Q97         1 TEMP              0 ****  ****    0 ROOT
