@<TRIPOS>MOLECULE
Q97
   51    53     1     0     0
SMALL
bcc


@<TRIPOS>ATOM
      1 CAA          4.9820     4.7160     0.3860 c3         1 Q97      -0.095100
      2 CAB         -2.4370    -2.6020     1.8450 c3         1 Q97      -0.086100
      3 CAE          2.2260    -3.8860     0.7880 ca         1 Q97      -0.197500
      4 CAF          2.6370    -2.5820    -1.1860 ca         1 Q97      -0.197500
      5 CAG         -4.0770     1.6860     0.7220 ca         1 Q97      -0.196500
      6 CAH         -4.5040     0.4320    -1.2840 ca         1 Q97      -0.196500
      7 CAI          1.0880     2.5470    -1.0740 ca         1 Q97      -0.196500
      8 CAJ          2.1130     1.5270     0.8460 ca         1 Q97      -0.196500
      9 CAK          0.9710    -3.3080     0.8950 ca         1 Q97      -0.075500
     10 CAL          1.3840    -2.0080    -1.0580 ca         1 Q97      -0.075500
     11 CAM         -2.8200     1.1080     0.8050 ca         1 Q97      -0.078500
     12 CAN         -3.2470    -0.1410    -1.1800 ca         1 Q97      -0.078500
     13 CAO          0.0830     1.6010    -1.0370 ca         1 Q97      -0.075500
     14 CAP          1.1000     0.5770     0.8600 ca         1 Q97      -0.075500
     15 CAQ          4.0980     3.5380     0.7230 c3         1 Q97       0.142400
     16 CAR         -1.9630    -2.6920     0.3940 c3         1 Q97      -0.038200
     17 OAS          3.0500     3.4860    -0.2350 os         1 Q97      -0.326900
     18 CAU         -1.0230    -0.4130    -0.0430 ce         1 Q97       0.002600
     19 CAV          3.0730    -3.5220    -0.2550 ca         1 Q97       0.139100
     20 CAW         -4.9300     1.3490    -0.3270 ca         1 Q97       0.139100
     21 CAX          2.1180     2.5200    -0.1310 ca         1 Q97       0.148100
     22 CAY          0.5260    -2.3430    -0.0100 ca         1 Q97      -0.089800
     23 CAZ         -2.3840     0.1740    -0.1310 ca         1 Q97      -0.085800
     24 CBA          0.0740     0.5820    -0.0800 ca         1 Q97      -0.091800
     25 HAA          5.7890     4.7830     1.1150 hc         1 Q97       0.046700
     26 HAAA         5.4310     4.6090    -0.6020 hc         1 Q97       0.046700
     27 HAAB         4.4260     5.6530     0.4150 hc         1 Q97       0.046700
     28 HAB         -3.2490    -3.3070     2.0300 hc         1 Q97       0.034700
     29 HABA        -1.6360    -2.8300     2.5490 hc         1 Q97       0.034700
     30 HABB        -2.8020    -1.6010     2.0750 hc         1 Q97       0.034700
     31 HOAC         4.7780    -3.7680    -1.0780 ho         1 Q97       0.425000
     32 HOAD        -6.3340     2.5140     0.2410 ho         1 Q97       0.425000
     33 HAE          2.5500    -4.6200     1.5150 ha         1 Q97       0.138000
     34 HAF          3.2740    -2.3000    -2.0170 ha         1 Q97       0.138000
     35 HAG         -4.3910     2.4000     1.4760 ha         1 Q97       0.138500
     36 HAH         -5.1540     0.1740    -2.1100 ha         1 Q97       0.138500
     37 HAI          1.0810     3.3210    -1.8320 ha         1 Q97       0.139000
     38 HAJ          2.8790     1.4760     1.6080 ha         1 Q97       0.139000
     39 HAK          0.3400    -3.6170     1.7190 ha         1 Q97       0.135500
     40 HAL          1.0650    -1.2880    -1.8000 ha         1 Q97       0.135500
     41 HAM         -2.1690     1.3920     1.6240 ha         1 Q97       0.135500
     42 HAN         -2.9280    -0.8430    -1.9420 ha         1 Q97       0.135500
     43 HAO         -0.7080     1.6500    -1.7760 ha         1 Q97       0.136000
     44 HAP          1.1140    -0.1810     1.6330 ha         1 Q97       0.136000
     45 HAQ          4.6780     2.6090     0.7040 h1         1 Q97       0.033700
     46 HAQA         3.6840     3.6490     1.7310 h1         1 Q97       0.033700
     47 HAR         -1.6510    -3.7140     0.1760 hc         1 Q97       0.049200
     48 HARA        -2.8100    -2.4940    -0.2620 hc         1 Q97       0.049200
     49 OAD         -6.1610     1.8810    -0.4650 oh         1 Q97      -0.495100
     50 CAT         -0.8220    -1.7400     0.0950 cf         1 Q97      -0.034400
     51 OAC          4.2850    -4.1080    -0.3230 oh         1 Q97      -0.495100
@<TRIPOS>BOND
     1     1    15 1   
     2     1    25 1   
     3     1    26 1   
     4     1    27 1   
     5     2    16 1   
     6     2    28 1   
     7     2    29 1   
     8     2    30 1   
     9     3     9 ar  
    10     3    19 ar  
    11     3    33 1   
    12     4    10 ar  
    13     4    19 ar  
    14     4    34 1   
    15     5    11 ar  
    16     5    20 ar  
    17     5    35 1   
    18     6    12 ar  
    19     6    20 ar  
    20     6    36 1   
    21     7    13 ar  
    22     7    21 ar  
    23     7    37 1   
    24     8    14 ar  
    25     8    21 ar  
    26     8    38 1   
    27     9    22 ar  
    28     9    39 1   
    29    10    22 ar  
    30    10    40 1   
    31    11    23 ar  
    32    11    41 1   
    33    12    23 ar  
    34    12    42 1   
    35    13    24 ar  
    36    13    43 1   
    37    14    24 ar  
    38    14    44 1   
    39    15    17 1   
    40    15    45 1   
    41    15    46 1   
    42    16    47 1   
    43    16    48 1   
    44    16    50 1   
    45    17    21 1   
    46    18    23 1   
    47    18    24 1   
    48    18    50 2   
    49    19    51 1   
    50    20    49 1   
    51    22    50 1   
    52    31    51 1   
    53    32    49 1   
@<TRIPOS>SUBSTRUCTURE
     1 Q97         1 TEMP              0 ****  ****    0 ROOT
