@<TRIPOS>MOLECULE
Q98
   41    44     1     0     0
SMALL
abcg2


@<TRIPOS>ATOM
      1 C4          56.1110    51.5710    30.1590 cc         1 Q98       0.654900
      2 C5          54.7810    51.4350    29.6290 cc         1 Q98      -0.270000
      3 C6          54.5290    50.4180    28.7790 cd         1 Q98       0.002000
      4 N1          55.5330    49.5610    28.4750 na         1 Q98       0.082900
      5 C7          56.7810    49.7080    29.0340 cd         1 Q98       0.443500
      6 C8          57.5430    48.6480    28.5360 cc         1 Q98      -0.259800
      7 N2          55.4410    48.4980    27.6590 nd         1 Q98      -0.578100
      8 C9          56.6420    47.9600    27.6980 cc         1 Q98       0.414500
      9 C10         58.9230    48.3090    28.8510 ca         1 Q98       0.012200
     10 C11         59.6440    47.3950    28.0780 ca         1 Q98      -0.097000
     11 C12         60.9390    47.0370    28.4230 ca         1 Q98      -0.119000
     12 N3          61.1510    50.3340    31.8400 ns         1 Q98      -0.507900
     13 C13         61.5500    47.5790    29.5440 ca         1 Q98      -0.066000
     14 C14         60.8590    48.5140    30.3090 ca         1 Q98      -0.150600
     15 C15         59.5600    48.8660    29.9640 ca         1 Q98      -0.087000
     16 N4          57.0690    50.7160    29.8640 nd         1 Q98      -0.766000
     17 C16         61.4960    49.0700    31.5440 c          1 Q98       0.616700
     18 C           61.4560    51.0170    33.0760 c3         1 Q98       0.088000
     19 N           56.3940    52.6060    30.9640 nu         1 Q98      -0.931100
     20 C3          57.7300    52.9100    31.4170 c3         1 Q98       0.226800
     21 C2          58.1420    52.0980    32.6380 c3         1 Q98       0.144600
     22 O           59.5040    52.3690    32.8670 os         1 Q98      -0.476000
     23 C1          60.1780    51.4900    33.7440 c3         1 Q98       0.142600
     24 H1          54.0010    52.1350    29.8870 ha         1 Q98       0.139000
     25 H2          53.5710    50.2360    28.3140 h4         1 Q98       0.163000
     26 H3          56.8370    47.0650    27.1250 h4         1 Q98       0.048800
     27 H4          59.1930    46.9550    27.1970 ha         1 Q98       0.109000
     28 H5          61.4760    46.3250    27.8100 ha         1 Q98       0.114000
     29 H6          60.6010    50.8500    31.1730 hn         1 Q98       0.326500
     30 H7          62.5570    47.2880    29.8110 ha         1 Q98       0.131000
     31 H8          59.0030    49.5560    30.5840 ha         1 Q98       0.131000
     32 H9          61.9870    50.3370    33.7410 h1         1 Q98       0.065200
     33 H10         62.1190    51.8640    32.8830 h1         1 Q98       0.065200
     34 H11         55.6550    53.2500    31.1900 hn         1 Q98       0.502000
     35 H12         58.4360    52.7170    30.6060 h1         1 Q98       0.066700
     36 H13         57.7690    53.9750    31.6420 h1         1 Q98       0.066700
     37 H14         57.5220    52.3700    33.5020 h1         1 Q98       0.036200
     38 H15         57.9780    51.0310    32.4430 h1         1 Q98       0.036200
     39 H16         60.4190    52.0000    34.6830 h1         1 Q98       0.043700
     40 H17         59.5580    50.6210    33.9920 h1         1 Q98       0.043700
     41 O1          62.2650    48.3980    32.2190 o          1 Q98      -0.608100
@<TRIPOS>BOND
     1     1     2 1   
     2     1    16 2   
     3     1    19 1   
     4     2     3 2   
     5     2    24 1   
     6     3     4 1   
     7     3    25 1   
     8     4     5 1   
     9     4     7 1   
    10     5     6 2   
    11     5    16 1   
    12     6     8 1   
    13     6     9 1   
    14     7     8 2   
    15     8    26 1   
    16     9    10 ar  
    17     9    15 ar  
    18    10    11 ar  
    19    10    27 1   
    20    11    13 ar  
    21    11    28 1   
    22    12    17 1   
    23    12    18 1   
    24    12    29 1   
    25    13    14 ar  
    26    13    30 1   
    27    14    15 ar  
    28    14    17 1   
    29    15    31 1   
    30    17    41 2   
    31    18    23 1   
    32    18    32 1   
    33    18    33 1   
    34    19    20 1   
    35    19    34 1   
    36    20    21 1   
    37    20    35 1   
    38    20    36 1   
    39    21    22 1   
    40    21    37 1   
    41    21    38 1   
    42    22    23 1   
    43    23    39 1   
    44    23    40 1   
@<TRIPOS>SUBSTRUCTURE
     1 Q98         1 TEMP              0 ****  ****    0 ROOT
