@<TRIPOS>MOLECULE
Q98
   41    44     1     0     0
SMALL
No Charge or Current Charge


@<TRIPOS>ATOM
      1 C4          56.1820    51.4850    30.0550 cc         1 Q98       0.654900
      2 C5          54.8550    51.4360    29.4970 cc         1 Q98      -0.270000
      3 C6          54.4520    50.4220    28.6340 cd         1 Q98       0.002000
      4 N1          55.4590    49.4840    28.4200 na         1 Q98       0.082900
      5 C7          56.6920    49.6210    29.0400 cd         1 Q98       0.443500
      6 C8          57.4210    48.5470    28.5990 cc         1 Q98      -0.259800
      7 N2          55.3330    48.4250    27.5490 nd         1 Q98      -0.578100
      8 C9          56.5490    47.8970    27.6770 cc         1 Q98       0.414500
      9 C10         58.8390    48.2520    28.9030 ca         1 Q98       0.012200
     10 C11         59.5680    47.4050    28.0420 ca         1 Q98      -0.097000
     11 C12         60.9170    47.1070    28.2980 ca         1 Q98      -0.119000
     12 N3          60.8880    50.1310    32.1250 ns         1 Q98      -0.507900
     13 C13         61.5670    47.6550    29.4160 ca         1 Q98      -0.066000
     14 C14         60.8640    48.4970    30.3010 ca         1 Q98      -0.150600
     15 C15         59.4980    48.7550    30.0470 ca         1 Q98      -0.087000
     16 N4          57.1600    50.6290    29.8600 nd         1 Q98      -0.766000
     17 C16         61.5670    49.1120    31.4940 c          1 Q98       0.616700
     18 C           61.3780    50.9040    33.2710 c3         1 Q98       0.088000
     19 N           56.4500    52.5300    30.8820 nu         1 Q98      -0.931100
     20 C3          57.7850    52.9480    31.3900 c3         1 Q98       0.226800
     21 C2          58.2710    52.0950    32.5940 c3         1 Q98       0.144600
     22 O           59.5870    52.5540    32.9820 os         1 Q98      -0.476000
     23 C1          60.2710    51.7410    33.9660 c3         1 Q98       0.142600
     24 H1          54.1570    52.2240    29.7540 ha         1 Q98       0.139000
     25 H2          53.4910    50.3030    28.1490 h4         1 Q98       0.163000
     26 H3          56.7790    47.0210    27.0850 h4         1 Q98       0.048800
     27 H4          59.0990    46.9820    27.1580 ha         1 Q98       0.109000
     28 H5          61.4660    46.4580    27.6190 ha         1 Q98       0.114000
     29 H6          60.0170    50.4210    31.7020 hn         1 Q98       0.326500
     30 H7          62.6170    47.4280    29.5880 ha         1 Q98       0.131000
     31 H8          58.9350    49.3180    30.7760 ha         1 Q98       0.131000
     32 H9          61.8200    50.2190    34.0060 h1         1 Q98       0.065200
     33 H10         62.1700    51.5800    32.9220 h1         1 Q98       0.065200
     34 H11         55.6780    53.1860    30.9800 hn         1 Q98       0.502000
     35 H12         58.5310    52.8770    30.5870 h1         1 Q98       0.066700
     36 H13         57.7490    54.0000    31.7050 h1         1 Q98       0.066700
     37 H14         57.5640    52.2040    33.4270 h1         1 Q98       0.036200
     38 H15         58.2930    51.0370    32.3080 h1         1 Q98       0.036200
     39 H16         60.7430    52.3810    34.7230 h1         1 Q98       0.043700
     40 H17         59.5730    51.0710    34.4860 h1         1 Q98       0.043700
     41 O1          62.6670    48.7400    31.8800 o          1 Q98      -0.608100
@<TRIPOS>BOND
     1     1     2 1   
     2     1    16 2   
     3     1    19 1   
     4     2     3 2   
     5     2    24 1   
     6     3     4 1   
     7     3    25 1   
     8     4     5 1   
     9     4     7 1   
    10     5     6 2   
    11     5    16 1   
    12     6     8 1   
    13     6     9 1   
    14     7     8 2   
    15     8    26 1   
    16     9    10 ar  
    17     9    15 ar  
    18    10    11 ar  
    19    10    27 1   
    20    11    13 ar  
    21    11    28 1   
    22    12    17 1   
    23    12    18 1   
    24    12    29 1   
    25    13    14 ar  
    26    13    30 1   
    27    14    15 ar  
    28    14    17 1   
    29    15    31 1   
    30    17    41 2   
    31    18    23 1   
    32    18    32 1   
    33    18    33 1   
    34    19    20 1   
    35    19    34 1   
    36    20    21 1   
    37    20    35 1   
    38    20    36 1   
    39    21    22 1   
    40    21    37 1   
    41    21    38 1   
    42    22    23 1   
    43    23    39 1   
    44    23    40 1   
@<TRIPOS>SUBSTRUCTURE
     1 Q98         1 TEMP              0 ****  ****    0 ROOT
