@<TRIPOS>MOLECULE
Q99
   48    51     1     0     0
SMALL
No Charge or Current Charge


@<TRIPOS>ATOM
      1 N1         -17.1040     8.9750    25.8160 ns         1 Q99      -0.372100
      2 C4         -22.9620     6.2490    26.7690 c3         1 Q99       0.101000
      3 C5         -20.7720     6.6510    25.5660 c          1 Q99       0.601300
      4 C6         -19.5100     7.4880    25.5730 cc         1 Q99      -0.033400
      5 C7         -19.2290     8.3360    26.6570 cd         1 Q99      -0.272200
      6 C8         -17.9970     9.1240    26.8310 c          1 Q99       0.558200
      7 C10        -16.2590     8.2020    23.6900 ca         1 Q99      -0.169000
      8 C13        -18.6170     6.7470    23.2840 ca         1 Q99      -0.037000
      9 C15        -21.7350     4.9390    31.1910 ca         1 Q99      -0.158000
     10 C17        -20.7620     3.8360    34.6000 cy         1 Q99       0.330700
     11 C20        -21.8410     2.7020    32.1330 ca         1 Q99      -0.179000
     12 C19        -19.0700     4.0280    35.6380 c          1 Q99       0.576000
     13 C18        -19.3780     3.0630    34.4180 cy         1 Q99      -0.208400
     14 N2         -20.2600     4.6350    35.6120 ns         1 Q99      -0.529900
     15 O3         -21.1420     4.6250    33.4770 os         1 Q99      -0.368100
     16 C16        -21.5650     4.0760    32.2840 ca         1 Q99       0.158100
     17 C          -22.2680     2.2100    30.8900 ca         1 Q99       0.179000
     18 Cl         -22.6070     0.4960    30.7010 cl         1 Q99      -0.201000
     19 C2         -22.1660     4.4500    29.9500 ca         1 Q99       0.168100
     20 C1         -22.4300     3.0740    29.7970 ca         1 Q99      -0.202000
     21 O          -22.3250     5.3570    28.9220 os         1 Q99      -0.362100
     22 C3         -22.7910     4.9690    27.6150 c3         1 Q99       0.142600
     23 N          -21.6950     6.9670    26.5480 ns         1 Q99      -0.501900
     24 O1         -21.0170     5.7490    24.7760 o          1 Q99      -0.590100
     25 C14        -18.4630     7.4590    24.5030 ca         1 Q99      -0.116800
     26 C12        -17.6060     6.7490    22.3060 ca         1 Q99      -0.146000
     27 C11        -16.4230     7.4690    22.5080 ca         1 Q99      -0.051000
     28 C9         -17.2700     8.2000    24.6670 ca         1 Q99       0.101600
     29 O2         -17.7780     9.8400    27.7950 o          1 Q99      -0.551000
     30 H1         -16.2410     9.4960    25.9040 hn         1 Q99       0.331500
     31 H2         -23.6660     6.9210    27.2760 h1         1 Q99       0.074200
     32 H3         -23.4030     5.9830    25.7980 h1         1 Q99       0.074200
     33 H4         -19.8870     8.4510    27.5080 ha         1 Q99       0.211000
     34 H5         -15.3500     8.7800    23.8400 ha         1 Q99       0.122000
     35 H6         -19.5170     6.1920    23.0490 ha         1 Q99       0.132000
     36 H7         -21.5320     5.9990    31.3080 ha         1 Q99       0.146000
     37 H8         -21.6210     3.2270    34.9050 h2         1 Q99       0.065700
     38 H9         -21.7320     2.0070    32.9600 ha         1 Q99       0.140000
     39 H10        -19.3450     2.0080    34.7040 hc         1 Q99       0.092200
     40 H11        -18.7700     3.2990    33.5410 hc         1 Q99       0.092200
     41 H12        -20.7330     4.8390    36.4820 hn         1 Q99       0.340500
     42 H13        -22.7610     2.6600    28.8510 ha         1 Q99       0.138000
     43 H14        -23.7610     4.4610    27.6870 h1         1 Q99       0.053700
     44 H15        -22.0760     4.2950    27.1260 h1         1 Q99       0.053700
     45 H16        -21.4710     7.7350    27.1670 hn         1 Q99       0.332500
     46 H17        -17.7470     6.1930    21.3830 ha         1 Q99       0.123000
     47 H18        -15.6450     7.4710    21.7470 ha         1 Q99       0.119000
     48 O4         -18.2030     4.2180    36.4730 o          1 Q99      -0.506000
@<TRIPOS>BOND
     1     1     6 1   
     2     1    28 1   
     3     1    30 1   
     4     2    22 1   
     5     2    23 1   
     6     2    31 1   
     7     2    32 1   
     8     3     4 1   
     9     3    23 1   
    10     3    24 2   
    11     4     5 2   
    12     4    25 1   
    13     5     6 1   
    14     5    33 1   
    15     6    29 2   
    16     7    27 ar  
    17     7    28 ar  
    18     7    34 1   
    19     8    25 ar  
    20     8    26 ar  
    21     8    35 1   
    22     9    16 ar  
    23     9    19 ar  
    24     9    36 1   
    25    10    13 1   
    26    10    14 1   
    27    10    15 1   
    28    10    37 1   
    29    11    16 ar  
    30    11    17 ar  
    31    11    38 1   
    32    12    13 1   
    33    12    14 1   
    34    12    48 2   
    35    13    39 1   
    36    13    40 1   
    37    14    41 1   
    38    15    16 1   
    39    17    18 1   
    40    17    20 ar  
    41    19    20 ar  
    42    19    21 1   
    43    20    42 1   
    44    21    22 1   
    45    22    43 1   
    46    22    44 1   
    47    23    45 1   
    48    25    28 ar  
    49    26    27 ar  
    50    26    46 1   
    51    27    47 1   
@<TRIPOS>SUBSTRUCTURE
     1 Q99         1 TEMP              0 ****  ****    0 ROOT
