@<TRIPOS>MOLECULE
Q99
   48    51     1     0     0
SMALL
abcg2


@<TRIPOS>ATOM
      1 N1         -16.3230     6.5800    25.4250 ns         1 Q99      -0.372100
      2 C4         -22.5720     5.4780    26.5090 c3         1 Q99       0.101000
      3 C5         -20.5290     5.9920    25.2280 c          1 Q99       0.601300
      4 C6         -19.0470     6.2450    25.3420 cc         1 Q99      -0.033400
      5 C7         -18.2670     5.3050    25.9280 cd         1 Q99      -0.272200
      6 C8         -16.8230     5.4310    25.9880 c          1 Q99       0.558200
      7 C10        -16.4460     8.7170    24.3190 ca         1 Q99      -0.169000
      8 C13        -19.2260     8.4710    24.1880 ca         1 Q99      -0.037000
      9 C15        -22.0420     4.9540    31.1300 ca         1 Q99      -0.158000
     10 C17        -20.6080     4.5270    34.2240 cy         1 Q99       0.330700
     11 C20        -22.3650     2.9120    32.3960 ca         1 Q99      -0.179000
     12 C19        -19.3230     5.8040    35.2480 c          1 Q99       0.576000
     13 C18        -19.2490     5.1790    33.8470 cy         1 Q99      -0.208400
     14 N2         -20.5340     5.2240    35.4860 ns         1 Q99      -0.529900
     15 O3         -21.7290     4.9770    33.4710 os         1 Q99      -0.368100
     16 C16        -22.0270     4.2650    32.3310 ca         1 Q99       0.158100
     17 C          -22.7130     2.2820    31.2140 ca         1 Q99       0.179000
     18 CL         -23.1480     0.5860    31.2620 cl         1 Q99      -0.201000
     19 C2         -22.4100     4.2890    29.9580 ca         1 Q99       0.168100
     20 C1         -22.7490     2.9370    29.9880 ca         1 Q99      -0.202000
     21 O          -22.4040     5.0400    28.8290 os         1 Q99      -0.362100
     22 C3         -22.7780     4.4360    27.5840 c3         1 Q99       0.142600
     23 N          -21.1660     5.8270    26.3970 ns         1 Q99      -0.501900
     24 O1         -21.0690     5.9190    24.1250 o          1 Q99      -0.590100
     25 C14        -18.4740     7.4370    24.7710 ca         1 Q99      -0.116800
     26 C12        -18.6060     9.5960    23.6830 ca         1 Q99      -0.146000
     27 C11        -17.2110     9.7140    23.7470 ca         1 Q99      -0.051000
     28 C9         -17.0710     7.5770    24.8380 ca         1 Q99       0.101600
     29 O2         -16.0710     4.5910    26.4930 o          1 Q99      -0.551000
     30 H1         -15.3170     6.6910    25.4590 hn         1 Q99       0.331500
     31 H2         -23.1690     6.3650    26.7310 h1         1 Q99       0.074200
     32 H3         -22.9000     5.0790    25.5510 h1         1 Q99       0.074200
     33 H4         -18.6890     4.4080    26.3580 ha         1 Q99       0.211000
     34 H5         -15.3680     8.8050    24.3760 ha         1 Q99       0.122000
     35 H6         -20.3010     8.3740    24.1330 ha         1 Q99       0.132000
     36 H7         -21.7750     6.0010    31.1000 ha         1 Q99       0.146000
     37 H8         -20.6130     3.4410    34.3010 h2         1 Q99       0.065700
     38 H9         -22.3750     2.3800    33.3350 ha         1 Q99       0.140000
     39 H10        -18.4150     4.4940    33.7090 hc         1 Q99       0.092200
     40 H11        -19.3110     5.8870    33.0230 hc         1 Q99       0.092200
     41 H12        -21.1000     5.1480    36.3220 hn         1 Q99       0.340500
     42 H13        -23.0370     2.3990    29.0990 ha         1 Q99       0.138000
     43 H14        -23.8270     4.1310    27.6190 h1         1 Q99       0.053700
     44 H15        -22.1520     3.5610    27.3930 h1         1 Q99       0.053700
     45 H16        -20.6480     5.9650    27.2520 hn         1 Q99       0.332500
     46 H17        -19.1960    10.3850    23.2370 ha         1 Q99       0.123000
     47 H18        -16.7260    10.5950    23.3470 ha         1 Q99       0.119000
     48 O4         -18.6040     6.4970    35.9340 o          1 Q99      -0.506000
@<TRIPOS>BOND
     1     1     6 1   
     2     1    28 1   
     3     1    30 1   
     4     2    22 1   
     5     2    23 1   
     6     2    31 1   
     7     2    32 1   
     8     3     4 1   
     9     3    23 1   
    10     3    24 2   
    11     4     5 2   
    12     4    25 1   
    13     5     6 1   
    14     5    33 1   
    15     6    29 2   
    16     7    27 ar  
    17     7    28 ar  
    18     7    34 1   
    19     8    25 ar  
    20     8    26 ar  
    21     8    35 1   
    22     9    16 ar  
    23     9    19 ar  
    24     9    36 1   
    25    10    13 1   
    26    10    14 1   
    27    10    15 1   
    28    10    37 1   
    29    11    16 ar  
    30    11    17 ar  
    31    11    38 1   
    32    12    13 1   
    33    12    14 1   
    34    12    48 2   
    35    13    39 1   
    36    13    40 1   
    37    14    41 1   
    38    15    16 1   
    39    17    18 1   
    40    17    20 ar  
    41    19    20 ar  
    42    19    21 1   
    43    20    42 1   
    44    21    22 1   
    45    22    43 1   
    46    22    44 1   
    47    23    45 1   
    48    25    28 ar  
    49    26    27 ar  
    50    26    46 1   
    51    27    47 1   
@<TRIPOS>SUBSTRUCTURE
     1 Q99         1 TEMP              0 ****  ****    0 ROOT
