@<TRIPOS>MOLECULE
Q9A
   40    42     1     0     0
SMALL
abcg2


@<TRIPOS>ATOM
      1 C10        -20.5200   -23.5270    44.2750 c5         1 Q9A      -0.111400
      2 N12        -21.3930   -25.2440    45.5780 nh         1 Q9A      -0.789300
      3 C13        -19.9960   -25.1260    45.9550 c5         1 Q9A       0.225800
      4 C17        -24.0390   -27.3920    46.9770 cc         1 Q9A       0.496300
      5 C20        -27.5230   -28.7040    47.0990 c3         1 Q9A      -0.174100
      6 C01        -13.7350   -30.4300    43.0110 c3         1 Q9A      -0.182100
      7 C02        -14.7870   -29.6220    43.7180 c          1 Q9A       0.612100
      8 C04        -16.0650   -27.5660    43.5000 cc         1 Q9A       0.527300
      9 C07        -17.9380   -26.1280    43.7800 cc         1 Q9A       0.692300
     10 C09        -19.3780   -24.4210    44.7480 c5         1 Q9A       0.225500
     11 C11        -21.7650   -24.3890    44.4650 c5         1 Q9A       0.228800
     12 C14        -22.2340   -26.0750    46.1990 cc         1 Q9A       0.661300
     13 C19        -26.3810   -27.8720    46.5950 c          1 Q9A       0.606100
     14 N05        -16.1200   -27.0280    44.6610 nd         1 Q9A      -0.278000
     15 N06        -17.1850   -26.2180    44.8400 nd         1 Q9A      -0.411000
     16 N08        -19.0380   -25.3640    43.6970 nu         1 Q9A      -0.917100
     17 N15        -21.9130   -26.8310    47.2090 nd         1 Q9A      -0.401000
     18 N16        -22.9570   -27.5830    47.6420 nd         1 Q9A      -0.354000
     19 O21        -26.4590   -27.0880    45.6660 o          1 Q9A      -0.575100
     20 O24        -15.3250   -29.9570    44.7490 o          1 Q9A      -0.531100
     21 S22        -23.9010   -26.2290    45.6910 ss         1 Q9A      -0.254800
     22 S23        -17.3870   -27.1080    42.4530 ss         1 Q9A      -0.389800
     23 H1         -20.3980   -23.1750    43.2510 hc         1 Q9A       0.066200
     24 H2         -20.5660   -22.6510    44.9230 hc         1 Q9A       0.066200
     25 H3         -19.5540   -26.1020    46.1530 h1         1 Q9A       0.081700
     26 H4         -19.8780   -24.5140    46.8540 h1         1 Q9A       0.081700
     27 H5         -28.4240   -28.4880    46.5330 hc         1 Q9A       0.069367
     28 H6         -27.2930   -29.7660    47.0060 hc         1 Q9A       0.069367
     29 H7         -27.7070   -28.5000    48.1550 hc         1 Q9A       0.069367
     30 H8         -13.4880   -31.3170    43.5870 hc         1 Q9A       0.065700
     31 H9         -14.0910   -30.7380    42.0260 hc         1 Q9A       0.065700
     32 H10        -12.8290   -29.8420    42.8600 hc         1 Q9A       0.065700
     33 H11        -18.4940   -23.8480    45.0380 h1         1 Q9A       0.083700
     34 H12        -22.6440   -23.7820    44.6940 h1         1 Q9A       0.052700
     35 H13        -21.9940   -24.9800    43.5710 h1         1 Q9A       0.052700
     36 H14        -14.6570   -28.2670    42.1810 hn         1 Q9A       0.329500
     37 H15        -19.4520   -25.2290    42.7890 hn         1 Q9A       0.501000
     38 H16        -25.1640   -28.7090    48.0320 hn         1 Q9A       0.342500
     39 N18        -25.2080   -28.0540    47.2640 ns         1 Q9A      -0.473400
     40 N03        -15.0940   -28.4490    43.0720 ns         1 Q9A      -0.496400
@<TRIPOS>BOND
     1     1    10 1   
     2     1    11 1   
     3     1    23 1   
     4     1    24 1   
     5     2     3 1   
     6     2    11 1   
     7     2    12 1   
     8     3    10 1   
     9     3    25 1   
    10     3    26 1   
    11     4    18 2   
    12     4    21 1   
    13     4    39 1   
    14     5    13 1   
    15     5    27 1   
    16     5    28 1   
    17     5    29 1   
    18     6     7 1   
    19     6    30 1   
    20     6    31 1   
    21     6    32 1   
    22     7    20 2   
    23     7    40 1   
    24     8    14 2   
    25     8    22 1   
    26     8    40 1   
    27     9    15 2   
    28     9    16 1   
    29     9    22 1   
    30    10    16 1   
    31    10    33 1   
    32    11    34 1   
    33    11    35 1   
    34    12    17 2   
    35    12    21 1   
    36    13    19 2   
    37    13    39 1   
    38    14    15 1   
    39    16    37 1   
    40    17    18 1   
    41    36    40 1   
    42    38    39 1   
@<TRIPOS>SUBSTRUCTURE
     1 Q9A         1 TEMP              0 ****  ****    0 ROOT
