@<TRIPOS>MOLECULE
Q9A
   40    42     1     0     0
SMALL
No Charge or Current Charge


@<TRIPOS>ATOM
      1 C10        -20.3630   -23.1900    44.3640 c5         1 Q9A      -0.111400
      2 N12        -21.3960   -24.5350    45.9940 nh         1 Q9A      -0.789300
      3 C13        -19.9260   -24.6490    46.2760 c5         1 Q9A       0.225800
      4 C17        -23.8630   -27.2520    46.7630 cc         1 Q9A       0.496300
      5 C20        -27.0160   -29.3140    46.5440 c3         1 Q9A      -0.174100
      6 C01        -14.1890   -30.7160    42.9640 c3         1 Q9A      -0.182100
      7 C02        -14.7140   -29.5120    43.7370 c          1 Q9A       0.612100
      8 C04        -16.5840   -27.8850    43.6610 cc         1 Q9A       0.527300
      9 C07        -18.1280   -26.1490    44.0150 cc         1 Q9A       0.692300
     10 C09        -19.2570   -24.1040    44.9630 c5         1 Q9A       0.225500
     11 C11        -21.6810   -23.9600    44.6570 c5         1 Q9A       0.228800
     12 C14        -22.1780   -25.6190    46.3650 cc         1 Q9A       0.661300
     13 C19        -26.0810   -28.1790    46.1450 c          1 Q9A       0.606100
     14 N05        -16.2760   -27.1610    44.7290 nd         1 Q9A      -0.278000
     15 N06        -17.1860   -26.1400    44.9370 nd         1 Q9A      -0.411000
     16 N08        -19.1490   -25.2470    44.0010 nu         1 Q9A      -0.917100
     17 N15        -21.8540   -26.4450    47.3510 nd         1 Q9A      -0.401000
     18 N16        -22.8260   -27.4040    47.5690 nd         1 Q9A      -0.354000
     19 O21        -26.3690   -27.3900    45.2600 o          1 Q9A      -0.575100
     20 O24        -14.1470   -29.0900    44.7320 o          1 Q9A      -0.531100
     21 S22        -23.7430   -25.9080    45.6650 ss         1 Q9A      -0.254800
     22 S23        -18.0120   -27.3810    42.8180 ss         1 Q9A      -0.389800
     23 H1         -20.2250   -22.9760    43.2980 hc         1 Q9A       0.066200
     24 H2         -20.3710   -22.2230    44.8800 hc         1 Q9A       0.066200
     25 H3         -19.5840   -25.6690    46.4990 h1         1 Q9A       0.081700
     26 H4         -19.6520   -24.0180    47.1320 h1         1 Q9A       0.081700
     27 H5         -27.9400   -29.3240    45.9550 hc         1 Q9A       0.069367
     28 H6         -26.4770   -30.2650    46.4670 hc         1 Q9A       0.069367
     29 H7         -27.2230   -29.2470    47.6180 hc         1 Q9A       0.069367
     30 H8         -13.2760   -31.1320    43.4030 hc         1 Q9A       0.065700
     31 H9         -14.9830   -31.4680    42.8920 hc         1 Q9A       0.065700
     32 H10        -14.0400   -30.4310    41.9160 hc         1 Q9A       0.065700
     33 H11        -18.3040   -23.5840    45.1410 h1         1 Q9A       0.083700
     34 H12        -22.5500   -23.2880    44.6670 h1         1 Q9A       0.052700
     35 H13        -21.8590   -24.7420    43.9040 h1         1 Q9A       0.052700
     36 H14        -16.2080   -29.4270    42.3850 hn         1 Q9A       0.329500
     37 H15        -19.7590   -25.3340    43.1940 hn         1 Q9A       0.501000
     38 H16        -24.8160   -28.8560    47.5620 hn         1 Q9A       0.342500
     39 N18        -24.9120   -28.1340    46.8630 ns         1 Q9A      -0.473400
     40 N03        -15.8600   -28.9650    43.2120 ns         1 Q9A      -0.496400
@<TRIPOS>BOND
     1     1    10 1   
     2     1    11 1   
     3     1    23 1   
     4     1    24 1   
     5     2     3 1   
     6     2    11 1   
     7     2    12 1   
     8     3    10 1   
     9     3    25 1   
    10     3    26 1   
    11     4    18 2   
    12     4    21 1   
    13     4    39 1   
    14     5    13 1   
    15     5    27 1   
    16     5    28 1   
    17     5    29 1   
    18     6     7 1   
    19     6    30 1   
    20     6    31 1   
    21     6    32 1   
    22     7    20 2   
    23     7    40 1   
    24     8    14 2   
    25     8    22 1   
    26     8    40 1   
    27     9    15 2   
    28     9    16 1   
    29     9    22 1   
    30    10    16 1   
    31    10    33 1   
    32    11    34 1   
    33    11    35 1   
    34    12    17 2   
    35    12    21 1   
    36    13    19 2   
    37    13    39 1   
    38    14    15 1   
    39    16    37 1   
    40    17    18 1   
    41    36    40 1   
    42    38    39 1   
@<TRIPOS>SUBSTRUCTURE
     1 Q9A         1 TEMP              0 ****  ****    0 ROOT
