@<TRIPOS>MOLECULE
Q9B
   43    46     1     0     0
SMALL
abcg2


@<TRIPOS>ATOM
      1 C4          61.3120    29.6530    12.9820 ca         1 Q9B      -0.154600
      2 C5          61.8180    30.8720    13.4220 ca         1 Q9B      -0.068000
      3 C6          61.0430    31.6710    14.2490 ca         1 Q9B      -0.120000
      4 N1          56.0940    29.3080    15.9730 nc         1 Q9B      -0.578100
      5 C7          59.7810    31.2600    14.6500 ca         1 Q9B      -0.095000
      6 C8          59.2670    30.0280    14.2410 ca         1 Q9B       0.010200
      7 N2          56.0600    28.4700    14.9270 na         1 Q9B       0.082900
      8 C9          60.0560    29.2360    13.4040 ca         1 Q9B      -0.082000
      9 C10         57.9630    29.5590    14.6850 cd         1 Q9B      -0.259800
     10 C11         57.2300    29.9560    15.8220 cd         1 Q9B       0.413500
     11 C12         55.0870    27.5710    14.6700 cc         1 Q9B      -0.001000
     12 N3          56.4670    26.1900    11.6290 nu         1 Q9B      -0.933100
     13 C13         55.2050    26.7810    13.5820 cd         1 Q9B      -0.271000
     14 C14         56.3570    26.9500    12.7370 cd         1 Q9B       0.656900
     15 C15         57.4770    26.3840    10.6130 c3         1 Q9B       0.236800
     16 N4          57.2960    27.8250    13.0050 nc         1 Q9B      -0.762000
     17 C3          62.1530    28.7990    12.0850 c          1 Q9B       0.617700
     18 N           61.4480    27.9940    11.2520 ns         1 Q9B      -0.511900
     19 C2          62.0540    27.1050    10.2900 c3         1 Q9B       0.100000
     20 C1          61.2980    25.7890    10.1470 c3         1 Q9B      -0.088400
     21 C17         57.1630    28.5770    14.1070 cc         1 Q9B       0.444500
     22 C16         58.8570    25.8330    10.9590 c3         1 Q9B      -0.100400
     23 C           59.8160    25.9520     9.7740 c3         1 Q9B      -0.074400
     24 H1          62.8030    31.1920    13.1100 ha         1 Q9B       0.131000
     25 H2          61.4220    32.6270    14.5840 ha         1 Q9B       0.114000
     26 H3          59.1920    31.9100    15.2850 ha         1 Q9B       0.110000
     27 H4          59.6820    28.2630    13.1200 ha         1 Q9B       0.132000
     28 H5          57.5110    30.6950    16.5570 h4         1 Q9B       0.047800
     29 H6          54.2600    27.5400    15.3640 h4         1 Q9B       0.162000
     30 H7          55.7330    25.5320    11.4440 hn         1 Q9B       0.498000
     31 H8          54.4380    26.0560    13.3540 ha         1 Q9B       0.138000
     32 H9          57.5590    27.4520    10.3910 h1         1 Q9B       0.048700
     33 H10         57.1080    25.9040     9.7050 h1         1 Q9B       0.048700
     34 H11         60.4660    28.1890    11.1470 hn         1 Q9B       0.318500
     35 H12         63.0780    26.9180    10.6070 h1         1 Q9B       0.050700
     36 H13         62.1160    27.5940     9.3100 h1         1 Q9B       0.050700
     37 H14         61.3880    25.2120    11.0720 hc         1 Q9B       0.050200
     38 H15         61.8120    25.2100     9.3780 hc         1 Q9B       0.050200
     39 H16         58.7720    24.7850    11.2590 hc         1 Q9B       0.056700
     40 H17         59.2450    26.3630    11.8300 hc         1 Q9B       0.056700
     41 H18         59.6700    26.9170     9.2720 hc         1 Q9B       0.037200
     42 H19         59.5390    25.2050     9.0260 hc         1 Q9B       0.037200
     43 O           63.3670    28.8380    12.1170 o          1 Q9B      -0.598100
@<TRIPOS>BOND
     1     1     2 ar  
     2     1     8 ar  
     3     1    17 1   
     4     2     3 ar  
     5     2    24 1   
     6     3     5 ar  
     7     3    25 1   
     8     4     7 1   
     9     4    10 2   
    10     5     6 ar  
    11     5    26 1   
    12     6     8 ar  
    13     6     9 1   
    14     7    11 1   
    15     7    21 1   
    16     8    27 1   
    17     9    10 1   
    18     9    21 2   
    19    10    28 1   
    20    11    13 2   
    21    11    29 1   
    22    12    14 1   
    23    12    15 1   
    24    12    30 1   
    25    13    14 1   
    26    13    31 1   
    27    14    16 2   
    28    15    22 1   
    29    15    32 1   
    30    15    33 1   
    31    16    21 1   
    32    17    18 1   
    33    17    43 2   
    34    18    19 1   
    35    18    34 1   
    36    19    20 1   
    37    19    35 1   
    38    19    36 1   
    39    20    23 1   
    40    20    37 1   
    41    20    38 1   
    42    22    23 1   
    43    22    39 1   
    44    22    40 1   
    45    23    41 1   
    46    23    42 1   
@<TRIPOS>SUBSTRUCTURE
     1 Q9B         1 TEMP              0 ****  ****    0 ROOT
