@<TRIPOS>MOLECULE
Q9B
   43    46     1     0     0
SMALL
No Charge or Current Charge


@<TRIPOS>ATOM
      1 C4          61.3240    29.7410    12.9180 ca         1 Q9B      -0.154600
      2 C5          61.8360    30.9230    13.4920 ca         1 Q9B      -0.068000
      3 C6          61.0760    31.6430    14.4270 ca         1 Q9B      -0.120000
      4 N1          55.9740    29.4670    15.9730 nc         1 Q9B      -0.578100
      5 C7          59.7950    31.2000    14.7970 ca         1 Q9B      -0.095000
      6 C8          59.2460    30.0280    14.2350 ca         1 Q9B       0.010200
      7 N2          55.9860    28.5730    14.9400 na         1 Q9B       0.082900
      8 C9          60.0340    29.3090    13.3070 ca         1 Q9B      -0.082000
      9 C10         57.8860    29.5770    14.6390 cd         1 Q9B      -0.259800
     10 C11         57.1440    30.0650    15.7650 cd         1 Q9B       0.413500
     11 C12         54.9610    27.6530    14.7220 cc         1 Q9B      -0.001000
     12 N3          56.5320    26.1270    11.7430 nu         1 Q9B      -0.933100
     13 C13         55.1930    26.8300    13.6190 cd         1 Q9B      -0.271000
     14 C14         56.3690    26.9610    12.8000 cd         1 Q9B       0.656900
     15 C15         57.4370    26.3170    10.5910 c3         1 Q9B       0.236800
     16 N4          57.3330    27.8260    13.0040 nc         1 Q9B      -0.762000
     17 C3          62.1490    28.9690    11.9040 c          1 Q9B       0.617700
     18 N           61.5690    27.8360    11.3750 ns         1 Q9B      -0.511900
     19 C2          62.1580    26.9990    10.3310 c3         1 Q9B       0.100000
     20 C1          61.3290    25.7260    10.0300 c3         1 Q9B      -0.088400
     21 C17         57.0900    28.5870    14.1110 cc         1 Q9B       0.444500
     22 C16         58.8670    25.8090    10.8910 c3         1 Q9B      -0.100400
     23 C           59.8340    25.9740     9.6900 c3         1 Q9B      -0.074400
     24 H1          62.8240    31.2870    13.2170 ha         1 Q9B       0.131000
     25 H2          61.4800    32.5530    14.8650 ha         1 Q9B       0.114000
     26 H3          59.2310    31.7890    15.5140 ha         1 Q9B       0.110000
     27 H4          59.6530    28.3880    12.8980 ha         1 Q9B       0.132000
     28 H5          57.4420    30.8400    16.4600 h4         1 Q9B       0.047800
     29 H6          54.1100    27.6390    15.3910 h4         1 Q9B       0.162000
     30 H7          55.7600    25.4750    11.6250 hn         1 Q9B       0.498000
     31 H8          54.4570    26.0760    13.3680 ha         1 Q9B       0.138000
     32 H9          57.4820    27.3810    10.3160 h1         1 Q9B       0.048700
     33 H10         57.0440    25.7740     9.7210 h1         1 Q9B       0.048700
     34 H11         60.6400    27.6060    11.6990 hn         1 Q9B       0.318500
     35 H12         63.1720    26.7080    10.6360 h1         1 Q9B       0.050700
     36 H13         62.2400    27.6000     9.4150 h1         1 Q9B       0.050700
     37 H14         61.4050    25.0320    10.8770 hc         1 Q9B       0.050200
     38 H15         61.8010    25.2180     9.1800 hc         1 Q9B       0.050200
     39 H16         58.8200    24.7480    11.1670 hc         1 Q9B       0.056700
     40 H17         59.2630    26.3380    11.7610 hc         1 Q9B       0.056700
     41 H18         59.7220    26.9760     9.2540 hc         1 Q9B       0.037200
     42 H19         59.5290    25.2670     8.9080 hc         1 Q9B       0.037200
     43 O           63.2670    29.3290    11.5590 o          1 Q9B      -0.598100
@<TRIPOS>BOND
     1     1     2 ar  
     2     1     8 ar  
     3     1    17 1   
     4     2     3 ar  
     5     2    24 1   
     6     3     5 ar  
     7     3    25 1   
     8     4     7 1   
     9     4    10 2   
    10     5     6 ar  
    11     5    26 1   
    12     6     8 ar  
    13     6     9 1   
    14     7    11 1   
    15     7    21 1   
    16     8    27 1   
    17     9    10 1   
    18     9    21 2   
    19    10    28 1   
    20    11    13 2   
    21    11    29 1   
    22    12    14 1   
    23    12    15 1   
    24    12    30 1   
    25    13    14 1   
    26    13    31 1   
    27    14    16 2   
    28    15    22 1   
    29    15    32 1   
    30    15    33 1   
    31    16    21 1   
    32    17    18 1   
    33    17    43 2   
    34    18    19 1   
    35    18    34 1   
    36    19    20 1   
    37    19    35 1   
    38    19    36 1   
    39    20    23 1   
    40    20    37 1   
    41    20    38 1   
    42    22    23 1   
    43    22    39 1   
    44    22    40 1   
    45    23    41 1   
    46    23    42 1   
@<TRIPOS>SUBSTRUCTURE
     1 Q9B         1 TEMP              0 ****  ****    0 ROOT
