@<TRIPOS>MOLECULE
Q9C
   34    33     1     0     0
SMALL
No Charge or Current Charge


@<TRIPOS>ATOM
      1 N            7.2170    -0.5770    -0.0050 n8         1 Q9C      -0.994200
      2 C           -5.2800    -0.2030     0.0500 c          1 Q9C       0.598100
      3 O           -5.4710    -1.4110     0.0370 o          1 Q9C      -0.604100
      4 N01          2.2580    -0.2190    -0.0320 n7         1 Q9C      -0.860400
      5 N02         -4.0200     0.3440     0.0440 ns         1 Q9C      -0.515900
      6 C01          3.5170     0.5480    -0.0210 c3         1 Q9C       0.160800
      7 C02          6.0690     0.3500     0.0030 c3         1 Q9C       0.150800
      8 C03          1.0300     0.5950    -0.0160 c3         1 Q9C       0.160800
      9 C04         -2.7820    -0.4340     0.0210 c3         1 Q9C       0.107000
     10 C05          4.7270    -0.4060    -0.0210 c3         1 Q9C      -0.083400
     11 C06         -0.2130    -0.3160    -0.0100 c3         1 Q9C      -0.077400
     12 C07         -1.5390     0.4760     0.0140 c3         1 Q9C      -0.095400
     13 C08         -6.4180     0.8080     0.0740 c3         1 Q9C      -0.180100
     14 HN           8.0860    -0.0340     0.0720 hn         1 Q9C       0.392500
     15 HNA          7.2040    -1.1320     0.8600 hn         1 Q9C       0.392500
     16 HN01         2.2450    -0.7980    -0.8810 hn         1 Q9C       0.407000
     17 HN02        -3.9590     1.3560     0.0560 hn         1 Q9C       0.309500
     18 H01          3.5740     1.2010    -0.9040 h1         1 Q9C       0.026200
     19 H01A         3.5650     1.1870     0.8720 h1         1 Q9C       0.026200
     20 H02          6.1270     0.9740     0.9060 h1         1 Q9C       0.025200
     21 H02A         6.1410     1.0040    -0.8770 h1         1 Q9C       0.025200
     22 H03          1.0100     1.2350     0.8770 h1         1 Q9C       0.027200
     23 H03A         0.9930     1.2480    -0.8980 h1         1 Q9C       0.027200
     24 H04         -2.7560    -1.0850     0.9060 h1         1 Q9C       0.052200
     25 H04A        -2.7790    -1.0700    -0.8750 h1         1 Q9C       0.052200
     26 H05          4.6650    -1.0640     0.8540 hc         1 Q9C       0.054200
     27 H05A         4.6860    -1.0420    -0.9130 hc         1 Q9C       0.054200
     28 H06         -0.1950    -0.9600    -0.8980 hc         1 Q9C       0.051200
     29 H06A        -0.1720    -0.9750     0.8670 hc         1 Q9C       0.051200
     30 H07         -1.5810     1.1350    -0.8630 hc         1 Q9C       0.041200
     31 H07A        -1.5590     1.1190     0.9030 hc         1 Q9C       0.041200
     32 H08         -6.3030     1.4950    -0.7720 hc         1 Q9C       0.059033
     33 H08A        -7.4060     0.3340     0.0790 hc         1 Q9C       0.059033
     34 H08B        -6.2850     1.4740     0.9350 hc         1 Q9C       0.059033
@<TRIPOS>BOND
     1     1     7 1   
     2     1    14 1   
     3     1    15 1   
     4     2     3 2   
     5     2     5 1   
     6     2    13 1   
     7     4     6 1   
     8     4     8 1   
     9     4    16 1   
    10     5     9 1   
    11     5    17 1   
    12     6    10 1   
    13     6    18 1   
    14     6    19 1   
    15     7    10 1   
    16     7    20 1   
    17     7    21 1   
    18     8    11 1   
    19     8    22 1   
    20     8    23 1   
    21     9    12 1   
    22     9    24 1   
    23     9    25 1   
    24    10    26 1   
    25    10    27 1   
    26    11    12 1   
    27    11    28 1   
    28    11    29 1   
    29    12    30 1   
    30    12    31 1   
    31    13    32 1   
    32    13    33 1   
    33    13    34 1   
@<TRIPOS>SUBSTRUCTURE
     1 Q9C         1 TEMP              0 ****  ****    0 ROOT
