@<TRIPOS>MOLECULE
Q9C
   34    33     1     0     0
SMALL
abcg2


@<TRIPOS>ATOM
      1 N            7.1390    -0.4510    -0.0100 n8         1 Q9C      -0.994200
      2 C           -5.1830    -0.1210     0.0220 c          1 Q9C       0.598100
      3 O           -5.4010    -1.3250    -0.0250 o          1 Q9C      -0.604100
      4 N01          2.2320    -0.3350    -0.0020 n7         1 Q9C      -0.860400
      5 N02         -3.9380     0.3820     0.0440 ns         1 Q9C      -0.515900
      6 C01          3.4420     0.4650    -0.0020 c3         1 Q9C       0.160800
      7 C02          5.9670     0.4140    -0.0100 c3         1 Q9C       0.150800
      8 C03          1.0250     0.4680     0.0040 c3         1 Q9C       0.160800
      9 C04         -2.7470    -0.4410     0.0220 c3         1 Q9C       0.107000
     10 C05          4.6870    -0.4070    -0.0160 c3         1 Q9C      -0.083400
     11 C06         -0.2240    -0.4010    -0.0010 c3         1 Q9C      -0.077400
     12 C07         -1.5000     0.4290     0.0180 c3         1 Q9C      -0.095400
     13 C08         -6.2840     0.9130     0.0560 c3         1 Q9C      -0.180100
     14 HN           7.9760     0.1170    -0.0410 hn         1 Q9C       0.392500
     15 HNA          7.1820    -0.9480     0.8720 hn         1 Q9C       0.392500
     16 HN01         2.2290    -0.9190    -0.8320 hn         1 Q9C       0.407000
     17 HN02        -3.8230     1.3810     0.0960 hn         1 Q9C       0.309500
     18 H01          3.4810     1.1690    -0.8500 h1         1 Q9C       0.026200
     19 H01A         3.4420     1.0810     0.9030 h1         1 Q9C       0.026200
     20 H02          5.9390     1.1110     0.8410 h1         1 Q9C       0.025200
     21 H02A         5.9990     1.0330    -0.9110 h1         1 Q9C       0.025200
     22 H03          1.0290     1.0840     0.9090 h1         1 Q9C       0.027200
     23 H03A         0.9810     1.1710    -0.8440 h1         1 Q9C       0.027200
     24 H04         -2.7300    -1.1040     0.8910 h1         1 Q9C       0.052200
     25 H04A        -2.7520    -1.0810    -0.8650 h1         1 Q9C       0.052200
     26 H05          4.6700    -1.0700     0.8560 hc         1 Q9C       0.054200
     27 H05A         4.6810    -1.0510    -0.9020 hc         1 Q9C       0.054200
     28 H06         -0.2190    -1.0420    -0.8890 hc         1 Q9C       0.051200
     29 H06A        -0.2000    -1.0680     0.8670 hc         1 Q9C       0.051200
     30 H07         -1.5200     1.0920    -0.8540 hc         1 Q9C       0.041200
     31 H07A        -1.5030     1.0740     0.9030 hc         1 Q9C       0.041200
     32 H08         -6.2060     1.5890    -0.7960 hc         1 Q9C       0.059033
     33 H08A        -7.2580     0.4300     0.0300 hc         1 Q9C       0.059033
     34 H08B        -6.2190     1.5190     0.9600 hc         1 Q9C       0.059033
@<TRIPOS>BOND
     1     1     7 1   
     2     1    14 1   
     3     1    15 1   
     4     2     3 2   
     5     2     5 1   
     6     2    13 1   
     7     4     6 1   
     8     4     8 1   
     9     4    16 1   
    10     5     9 1   
    11     5    17 1   
    12     6    10 1   
    13     6    18 1   
    14     6    19 1   
    15     7    10 1   
    16     7    20 1   
    17     7    21 1   
    18     8    11 1   
    19     8    22 1   
    20     8    23 1   
    21     9    12 1   
    22     9    24 1   
    23     9    25 1   
    24    10    26 1   
    25    10    27 1   
    26    11    12 1   
    27    11    28 1   
    28    11    29 1   
    29    12    30 1   
    30    12    31 1   
    31    13    32 1   
    32    13    33 1   
    33    13    34 1   
@<TRIPOS>SUBSTRUCTURE
     1 Q9C         1 TEMP              0 ****  ****    0 ROOT
