@<TRIPOS>MOLECULE
Q9D
   43    44     1     0     0
SMALL
abcg2


@<TRIPOS>ATOM
      1 C22        -27.9390   -10.1640    12.8720 ca         1 Q9D      -0.043000
      2 C24        -26.1100   -10.2040    14.4340 ca         1 Q9D      -0.060000
      3 C28        -23.0820   -15.5890    11.8700 c3         1 Q9D       0.232900
      4 C02        -23.6130   -14.1230    13.6430 c          1 Q9D       0.634100
      5 C04        -24.3710   -12.6850    15.4410 c3         1 Q9D       0.029700
      6 C05        -25.7040   -12.1450    15.9780 c3         1 Q9D      -0.043100
      7 C06        -26.5000   -11.4570    14.9040 ca         1 Q9D      -0.091300
      8 C07        -27.6190   -12.0610    14.3500 ca         1 Q9D      -0.051000
      9 C08        -28.3210   -11.4080    13.3460 ca         1 Q9D      -0.173200
     10 C23        -26.8200    -9.5660    13.4300 ca         1 Q9D      -0.116000
     11 C25        -23.5650   -13.2440    16.6140 c          1 Q9D       0.565100
     12 C29        -23.8110   -16.5820    11.0170 ca         1 Q9D      -0.106300
     13 C30        -24.4280   -16.1810     9.8360 ca         1 Q9D      -0.083500
     14 C31        -25.1280   -17.0950     9.0610 ca         1 Q9D      -0.114500
     15 C32        -25.2190   -18.4220     9.4630 ca         1 Q9D      -0.095000
     16 C33        -24.6060   -18.8310    10.6410 ca         1 Q9D      -0.114500
     17 C34        -23.9080   -17.9130    11.4140 ca         1 Q9D      -0.083500
     18 C56        -23.7290   -14.6990    16.9450 c3         1 Q9D      -0.197100
     19 N03        -24.6200   -13.6560    14.4090 ns         1 Q9D      -0.504900
     20 N09        -29.4960   -12.0520    12.7750 no         1 Q9D       0.693200
     21 O01        -22.4560   -13.7740    13.7570 o          1 Q9D      -0.540000
     22 O27        -24.0530   -15.0120    12.7550 os         1 Q9D      -0.455100
     23 O41        -29.8000   -13.1480    13.1840 o          1 Q9D      -0.397000
     24 O47        -30.1090   -11.4590    11.9190 o          1 Q9D      -0.397000
     25 O52        -22.8580   -12.5030    17.2550 o          1 Q9D      -0.505100
     26 H1         -28.4920    -9.6630    12.0920 ha         1 Q9D       0.154000
     27 H2         -25.2410    -9.7170    14.8620 ha         1 Q9D       0.129000
     28 H3         -22.2930   -16.0760    12.4450 h1         1 Q9D       0.057700
     29 H4         -22.6280   -14.8080    11.2570 h1         1 Q9D       0.057700
     30 H5         -23.7990   -11.8480    15.0300 h1         1 Q9D       0.093700
     31 H6         -25.4870   -11.4410    16.7830 hc         1 Q9D       0.069200
     32 H7         -26.2880   -12.9580    16.4170 hc         1 Q9D       0.069200
     33 H8         -27.9430   -13.0280    14.7100 ha         1 Q9D       0.147000
     34 H9         -26.5070    -8.5920    13.0800 ha         1 Q9D       0.132000
     35 H10        -24.3550   -15.1480     9.5150 ha         1 Q9D       0.114000
     36 H11        -25.6000   -16.7730     8.1420 ha         1 Q9D       0.115500
     37 H12        -25.7640   -19.1360     8.8590 ha         1 Q9D       0.115000
     38 H13        -24.6700   -19.8640    10.9560 ha         1 Q9D       0.115500
     39 H14        -23.4290   -18.2360    12.3310 ha         1 Q9D       0.114000
     40 H15        -23.4380   -14.8880    17.9760 hc         1 Q9D       0.065033
     41 H16        -24.7480   -15.0490    16.7800 hc         1 Q9D       0.065033
     42 H17        -23.0800   -15.2950    16.2990 hc         1 Q9D       0.065033
     43 H18        -25.5410   -14.0520    14.3020 hn         1 Q9D       0.335500
@<TRIPOS>BOND
     1     1     9 ar  
     2     1    10 ar  
     3     1    26 1   
     4     2     7 ar  
     5     2    10 ar  
     6     2    27 1   
     7     3    12 1   
     8     3    22 1   
     9     3    28 1   
    10     3    29 1   
    11     4    19 1   
    12     4    21 2   
    13     4    22 1   
    14     5     6 1   
    15     5    11 1   
    16     5    19 1   
    17     5    30 1   
    18     6     7 1   
    19     6    31 1   
    20     6    32 1   
    21     7     8 ar  
    22     8     9 ar  
    23     8    33 1   
    24     9    20 1   
    25    10    34 1   
    26    11    18 1   
    27    11    25 2   
    28    12    13 ar  
    29    12    17 ar  
    30    13    14 ar  
    31    13    35 1   
    32    14    15 ar  
    33    14    36 1   
    34    15    16 ar  
    35    15    37 1   
    36    16    17 ar  
    37    16    38 1   
    38    17    39 1   
    39    18    40 1   
    40    18    41 1   
    41    18    42 1   
    42    19    43 1   
    43    20    23 1   
    44    20    24 1   
@<TRIPOS>SUBSTRUCTURE
     1 Q9D         1 TEMP              0 ****  ****    0 ROOT
