@<TRIPOS>MOLECULE
Q9D
   43    44     1     0     0
SMALL
No Charge or Current Charge


@<TRIPOS>ATOM
      1 C22        -27.0120   -10.4200    12.4110 ca         1 Q9D      -0.043000
      2 C24        -25.8250   -10.3100    14.5360 ca         1 Q9D      -0.060000
      3 C28        -23.9550   -14.8110    11.4280 c3         1 Q9D       0.232900
      4 C02        -23.9070   -13.7650    13.5730 c          1 Q9D       0.634100
      5 C04        -24.2800   -12.9640    15.9380 c3         1 Q9D       0.029700
      6 C05        -25.6840   -12.3180    16.0890 c3         1 Q9D      -0.043100
      7 C06        -26.1660   -11.6480    14.8050 ca         1 Q9D      -0.091300
      8 C07        -26.9360   -12.3710    13.8730 ca         1 Q9D      -0.051000
      9 C08        -27.3610   -11.7670    12.6650 ca         1 Q9D      -0.173200
     10 C23        -26.2490    -9.6990    13.3450 ca         1 Q9D      -0.116000
     11 C25        -23.7200   -13.5480    17.2660 c          1 Q9D       0.565100
     12 C29        -24.4040   -16.1280    10.8080 ca         1 Q9D      -0.106300
     13 C30        -25.7610   -16.3330    10.4900 ca         1 Q9D      -0.083500
     14 C31        -26.1800   -17.5470     9.9170 ca         1 Q9D      -0.114500
     15 C32        -25.2440   -18.5630     9.6610 ca         1 Q9D      -0.095000
     16 C33        -23.8890   -18.3650     9.9780 ca         1 Q9D      -0.114500
     17 C34        -23.4700   -17.1510    10.5510 ca         1 Q9D      -0.083500
     18 C56        -24.6130   -14.5120    18.0540 c3         1 Q9D      -0.197100
     19 N03        -24.2670   -13.9930    14.8720 ns         1 Q9D      -0.504900
     20 N09        -28.1630   -12.5470    11.6670 no         1 Q9D       0.693200
     21 O01        -23.4380   -12.7230    13.1420 o          1 Q9D      -0.540000
     22 O27        -24.1920   -14.8730    12.8420 os         1 Q9D      -0.455100
     23 O41        -28.4110   -13.7340    11.9140 o          1 Q9D      -0.397000
     24 O47        -28.5260   -11.9730    10.6310 o          1 Q9D      -0.397000
     25 O52        -22.5960   -13.2690    17.6650 o          1 Q9D      -0.505100
     26 H1         -27.3240    -9.9260    11.4920 ha         1 Q9D       0.154000
     27 H2         -25.2260    -9.7430    15.2460 ha         1 Q9D       0.129000
     28 H3         -22.8900   -14.6450    11.2180 h1         1 Q9D       0.057700
     29 H4         -24.5210   -13.9860    10.9740 h1         1 Q9D       0.057700
     30 H5         -23.5800   -12.1670    15.6520 h1         1 Q9D       0.093700
     31 H6         -25.6520   -11.5830    16.9030 hc         1 Q9D       0.069200
     32 H7         -26.4090   -13.0800    16.3990 hc         1 Q9D       0.069200
     33 H8         -27.1890   -13.4080    14.0880 ha         1 Q9D       0.147000
     34 H9         -25.9810    -8.6650    13.1410 ha         1 Q9D       0.132000
     35 H10        -26.4920   -15.5520    10.6880 ha         1 Q9D       0.114000
     36 H11        -27.2290   -17.7000     9.6740 ha         1 Q9D       0.115500
     37 H12        -25.5680   -19.5030     9.2180 ha         1 Q9D       0.115000
     38 H13        -23.1640   -19.1520     9.7820 ha         1 Q9D       0.115500
     39 H14        -22.4200   -17.0070    10.7960 ha         1 Q9D       0.114000
     40 H15        -24.0640   -15.0410    18.8410 hc         1 Q9D       0.065033
     41 H16        -25.4410   -13.9420    18.4890 hc         1 Q9D       0.065033
     42 H17        -25.1230   -15.1980    17.3680 hc         1 Q9D       0.065033
     43 H18        -24.6460   -14.9130    15.0600 hn         1 Q9D       0.335500
@<TRIPOS>BOND
     1     1     9 ar  
     2     1    10 ar  
     3     1    26 1   
     4     2     7 ar  
     5     2    10 ar  
     6     2    27 1   
     7     3    12 1   
     8     3    22 1   
     9     3    28 1   
    10     3    29 1   
    11     4    19 1   
    12     4    21 2   
    13     4    22 1   
    14     5     6 1   
    15     5    11 1   
    16     5    19 1   
    17     5    30 1   
    18     6     7 1   
    19     6    31 1   
    20     6    32 1   
    21     7     8 ar  
    22     8     9 ar  
    23     8    33 1   
    24     9    20 1   
    25    10    34 1   
    26    11    18 1   
    27    11    25 2   
    28    12    13 ar  
    29    12    17 ar  
    30    13    14 ar  
    31    13    35 1   
    32    14    15 ar  
    33    14    36 1   
    34    15    16 ar  
    35    15    37 1   
    36    16    17 ar  
    37    16    38 1   
    38    17    39 1   
    39    18    40 1   
    40    18    41 1   
    41    18    42 1   
    42    19    43 1   
    43    20    23 1   
    44    20    24 1   
@<TRIPOS>SUBSTRUCTURE
     1 Q9D         1 TEMP              0 ****  ****    0 ROOT
