@<TRIPOS>MOLECULE
Q9E
   62    64     1     0     0
SMALL
abcg2


@<TRIPOS>ATOM
      1 C1         -25.6780    21.4790   -19.2330 ca         1 Q9E      -0.117000
      2 C2         -26.4860    21.7100   -20.3340 ca         1 Q9E      -0.078000
      3 C3         -24.3090    21.6350   -19.3530 ca         1 Q9E      -0.061000
      4 C7         -22.2350    22.1320   -20.5100 c          1 Q9E       0.615700
      5 C8         -20.3990    23.7990   -23.5810 c          1 Q9E       0.609100
      6 C9         -19.3490    21.0960   -25.1070 c          1 Q9E       0.572100
      7 C10        -21.8170    25.0100   -26.6350 c          1 Q9E       0.579100
      8 C12        -24.0570    22.6880   -23.0370 c3         1 Q9E       0.107900
      9 C13        -17.8220    18.3330   -26.2330 c2         1 Q9E      -0.314200
     10 C14        -18.8270    18.6340   -25.1620 c5         1 Q9E      -0.035200
     11 C15        -18.1080    19.0020   -27.3420 c2         1 Q9E      -0.045400
     12 C16        -20.2060    22.1830   -21.7090 c3         1 Q9E       0.156600
     13 C19        -19.6710    19.7760   -25.7930 c5         1 Q9E       0.021700
     14 C20        -21.9760    24.9000   -25.1090 c3         1 Q9E       0.037700
     15 C21        -20.9360    21.4550   -27.8060 c3         1 Q9E      -0.183100
     16 C22        -19.4020    25.4920   -26.3360 c3         1 Q9E       0.083800
     17 N25        -19.2440    19.8080   -27.1840 n          1 Q9E      -0.324000
     18 N26        -20.0980    21.3530   -24.0110 ns         1 Q9E      -0.521900
     19 O28        -21.6260    22.2530   -19.4760 o          1 Q9E      -0.480000
     20 C4         -25.9130    22.0880   -21.5370 ca         1 Q9E      -0.116000
     21 C5         -23.7190    22.0060   -20.5640 ca         1 Q9E      -0.123600
     22 C6         -24.5350    22.2320   -21.6880 ca         1 Q9E      -0.017300
     23 C17        -23.4570    24.8250   -24.7340 c3         1 Q9E       0.042600
     24 C18        -19.7950    22.4630   -23.1400 c3         1 Q9E       0.023700
     25 C23        -20.4550    25.2830   -28.5760 c3         1 Q9E       0.083800
     26 N24        -21.2380    23.7570   -24.6300 ns         1 Q9E      -0.491900
     27 N27        -20.5990    25.2870   -27.1290 n          1 Q9E      -0.395800
     28 O29        -20.0930    24.8170   -22.9870 o          1 Q9E      -0.587100
     29 O30        -18.4760    21.8420   -25.5030 o          1 Q9E      -0.564100
     30 O31        -22.7790    24.8200   -27.3660 o          1 Q9E      -0.613100
     31 O32        -19.2610    20.6120   -29.2830 o          1 Q9E      -0.576100
     32 O33        -21.6300    22.0660   -21.6890 os         1 Q9E      -0.454100
     33 S34        -23.7350    24.4840   -22.9740 ss         1 Q9E      -0.401000
     34 H1         -26.1060    21.1800   -18.2860 ha         1 Q9E       0.123000
     35 H2         -27.5600    21.6000   -20.2610 ha         1 Q9E       0.120000
     36 H3         -23.6810    21.4590   -18.4910 ha         1 Q9E       0.138000
     37 H4         -24.8460    22.5190   -23.7700 h1         1 Q9E       0.066200
     38 H5         -23.1740    22.1540   -23.3710 h1         1 Q9E       0.066200
     39 H7         -19.4510    17.7670   -24.9370 hc         1 Q9E       0.060200
     40 H8         -18.3660    18.9390   -24.2200 hc         1 Q9E       0.060200
     41 H9         -17.5990    18.9800   -28.2920 h4         1 Q9E       0.235000
     42 H10        -19.7480    21.2570   -21.3550 h1         1 Q9E       0.076700
     43 H11        -19.8690    23.0000   -21.0720 h1         1 Q9E       0.076700
     44 H12        -20.7380    19.5550   -25.7120 h1         1 Q9E       0.069700
     45 H13        -21.5520    25.7830   -24.6300 h1         1 Q9E       0.105700
     46 H14        -21.4680    21.7320   -28.7130 hc         1 Q9E       0.066033
     47 H15        -21.6400    20.9710   -27.1300 hc         1 Q9E       0.066033
     48 H16        -20.5870    22.3760   -27.3370 hc         1 Q9E       0.066033
     49 H17        -19.6280    25.9000   -25.3550 h1         1 Q9E       0.048533
     50 H18        -18.8350    24.5680   -26.2060 h1         1 Q9E       0.048533
     51 H19        -18.7650    26.2170   -26.8380 h1         1 Q9E       0.048533
     52 H20        -20.7700    20.6630   -23.7090 hn         1 Q9E       0.327500
     53 H21        -26.5520    22.2770   -22.3900 ha         1 Q9E       0.119000
     54 H22        -23.9320    25.7790   -24.9610 h1         1 Q9E       0.086700
     55 H23        -23.9790    24.0650   -25.3160 h1         1 Q9E       0.086700
     56 H24        -18.7120    22.6140   -23.1260 h1         1 Q9E       0.107700
     57 H25        -19.4240    25.5150   -28.8270 h1         1 Q9E       0.048533
     58 H26        -20.6980    24.3100   -29.0030 h1         1 Q9E       0.048533
     59 H27        -21.0990    26.0290   -29.0410 h1         1 Q9E       0.048533
     60 H28        -21.4620    22.8540   -25.0160 hn         1 Q9E       0.317500
     61 H6         -17.0030    17.6410   -26.1160 ha         1 Q9E       0.210000
     62 C11        -19.7510    20.5970   -28.1660 c          1 Q9E       0.623100
@<TRIPOS>BOND
     1     1     2 ar  
     2     1     3 ar  
     3     1    34 1   
     4     2    20 ar  
     5     2    35 1   
     6     3    21 ar  
     7     3    36 1   
     8     4    19 2   
     9     4    21 1   
    10     4    32 1   
    11     5    24 1   
    12     5    26 1   
    13     5    28 2   
    14     6    13 1   
    15     6    18 1   
    16     6    29 2   
    17     7    14 1   
    18     7    27 1   
    19     7    30 2   
    20     8    22 1   
    21     8    33 1   
    22     8    37 1   
    23     8    38 1   
    24     9    10 1   
    25     9    11 2   
    26     9    61 1   
    27    10    13 1   
    28    10    39 1   
    29    10    40 1   
    30    11    17 1   
    31    11    41 1   
    32    12    24 1   
    33    12    32 1   
    34    12    42 1   
    35    12    43 1   
    36    13    17 1   
    37    13    44 1   
    38    14    23 1   
    39    14    26 1   
    40    14    45 1   
    41    15    46 1   
    42    15    47 1   
    43    15    48 1   
    44    15    62 1   
    45    16    27 1   
    46    16    49 1   
    47    16    50 1   
    48    16    51 1   
    49    17    62 1   
    50    18    24 1   
    51    18    52 1   
    52    20    22 ar  
    53    20    53 1   
    54    21    22 ar  
    55    23    33 1   
    56    23    54 1   
    57    23    55 1   
    58    24    56 1   
    59    25    27 1   
    60    25    57 1   
    61    25    58 1   
    62    25    59 1   
    63    26    60 1   
    64    31    62 2   
@<TRIPOS>SUBSTRUCTURE
     1 Q9E         1 TEMP              0 ****  ****    0 ROOT
