@<TRIPOS>MOLECULE
Q9E
   62    64     1     0     0
SMALL
No Charge or Current Charge


@<TRIPOS>ATOM
      1 C1         -25.5710    20.9690   -19.2820 ca         1 Q9E      -0.117000
      2 C2         -26.3790    21.1430   -20.4110 ca         1 Q9E      -0.078000
      3 C3         -24.2160    21.3250   -19.3300 ca         1 Q9E      -0.061000
      4 C7         -22.1590    22.2110   -20.4330 c          1 Q9E       0.615700
      5 C8         -20.3180    24.0590   -23.5610 c          1 Q9E       0.609100
      6 C9         -19.1990    21.2300   -25.0660 c          1 Q9E       0.572100
      7 C10        -21.9040    25.2610   -26.6670 c          1 Q9E       0.579100
      8 C12        -23.9880    22.6320   -22.9890 c3         1 Q9E       0.107900
      9 C13        -18.5300    17.8690   -25.9730 c2         1 Q9E      -0.314200
     10 C14        -19.3030    18.6770   -24.9420 c5         1 Q9E      -0.035200
     11 C15        -18.5670    18.4830   -27.1470 c2         1 Q9E      -0.045400
     12 C16        -20.0730    22.4580   -21.6270 c3         1 Q9E       0.156600
     13 C19        -19.8070    19.9590   -25.7290 c5         1 Q9E       0.021700
     14 C20        -22.0540    25.0590   -25.1220 c3         1 Q9E       0.037700
     15 C21        -20.5350    21.6410   -28.1150 c3         1 Q9E      -0.183100
     16 C22        -19.4020    25.6230   -26.4540 c3         1 Q9E       0.083800
     17 N25        -19.2960    19.6700   -27.1060 n          1 Q9E      -0.324000
     18 N26        -19.9600    21.5850   -23.9710 ns         1 Q9E      -0.521900
     19 O28        -21.6110    22.4920   -19.3740 o          1 Q9E      -0.480000
     20 C4         -25.8270    21.6760   -21.5840 ca         1 Q9E      -0.116000
     21 C5         -23.6340    21.8560   -20.5070 ca         1 Q9E      -0.123600
     22 C6         -24.4640    22.0380   -21.6580 ca         1 Q9E      -0.017300
     23 C17        -23.5350    24.8590   -24.6980 c3         1 Q9E       0.042600
     24 C18        -19.6560    22.7410   -23.0830 c3         1 Q9E       0.023700
     25 C23        -20.4580    25.3300   -28.7210 c3         1 Q9E       0.083800
     26 N24        -21.1930    23.9560   -24.6270 ns         1 Q9E      -0.491900
     27 N27        -20.6100    25.2990   -27.2480 n          1 Q9E      -0.395800
     28 O29        -20.0640    25.1370   -23.0400 o          1 Q9E      -0.587100
     29 O30        -18.2430    21.8890   -25.4490 o          1 Q9E      -0.564100
     30 O31        -22.8930    25.3060   -27.3920 o          1 Q9E      -0.613100
     31 O32        -18.9200    20.3120   -29.2810 o          1 Q9E      -0.576100
     32 O33        -21.4860    22.1640   -21.6250 os         1 Q9E      -0.454100
     33 S34        -23.7340    24.4670   -22.8900 ss         1 Q9E      -0.401000
     34 H1         -25.9950    20.5590   -18.3680 ha         1 Q9E       0.123000
     35 H2         -27.4320    20.8710   -20.3770 ha         1 Q9E       0.120000
     36 H3         -23.6090    21.1780   -18.4380 ha         1 Q9E       0.138000
     37 H4         -24.7520    22.4440   -23.7540 h1         1 Q9E       0.066200
     38 H5         -23.0780    22.1370   -23.3440 h1         1 Q9E       0.066200
     39 H7         -20.1460    18.0990   -24.5470 hc         1 Q9E       0.060200
     40 H8         -18.6640    18.9320   -24.0880 hc         1 Q9E       0.060200
     41 H9         -18.1120    18.1650   -28.0910 h4         1 Q9E       0.235000
     42 H10        -19.4980    21.6120   -21.2270 h1         1 Q9E       0.076700
     43 H11        -19.8470    23.3430   -21.0160 h1         1 Q9E       0.076700
     44 H12        -20.9020    20.0280   -25.7160 h1         1 Q9E       0.069700
     45 H13        -21.7130    25.9990   -24.6710 h1         1 Q9E       0.105700
     46 H14        -20.7340    22.1140   -29.0830 hc         1 Q9E       0.066033
     47 H15        -21.4530    21.2590   -27.6550 hc         1 Q9E       0.066033
     48 H16        -20.1850    22.3810   -27.3900 hc         1 Q9E       0.066033
     49 H17        -19.6520    26.3040   -25.6310 h1         1 Q9E       0.048533
     50 H18        -18.9670    24.7010   -26.0480 h1         1 Q9E       0.048533
     51 H19        -18.6510    26.1140   -27.0870 h1         1 Q9E       0.048533
     52 H20        -20.7200    20.9650   -23.7070 hn         1 Q9E       0.327500
     53 H21        -26.4740    21.8140   -22.4480 ha         1 Q9E       0.119000
     54 H22        -24.0960    25.7760   -24.9220 h1         1 Q9E       0.086700
     55 H23        -23.9810    24.0480   -25.2900 h1         1 Q9E       0.086700
     56 H24        -18.5740    22.9220   -23.0970 h1         1 Q9E       0.107700
     57 H25        -19.4310    25.0650   -29.0030 h1         1 Q9E       0.048533
     58 H26        -21.1420    24.6100   -29.1880 h1         1 Q9E       0.048533
     59 H27        -20.6850    26.3370   -29.0950 h1         1 Q9E       0.048533
     60 H28        -21.3240    23.0270   -25.0050 hn         1 Q9E       0.317500
     61 H6         -18.0140    16.9230   -25.7870 ha         1 Q9E       0.210000
     62 C11        -19.5030    20.5150   -28.2230 c          1 Q9E       0.623100
@<TRIPOS>BOND
     1     1     2 ar  
     2     1     3 ar  
     3     1    34 1   
     4     2    20 ar  
     5     2    35 1   
     6     3    21 ar  
     7     3    36 1   
     8     4    19 2   
     9     4    21 1   
    10     4    32 1   
    11     5    24 1   
    12     5    26 1   
    13     5    28 2   
    14     6    13 1   
    15     6    18 1   
    16     6    29 2   
    17     7    14 1   
    18     7    27 1   
    19     7    30 2   
    20     8    22 1   
    21     8    33 1   
    22     8    37 1   
    23     8    38 1   
    24     9    10 1   
    25     9    11 2   
    26     9    61 1   
    27    10    13 1   
    28    10    39 1   
    29    10    40 1   
    30    11    17 1   
    31    11    41 1   
    32    12    24 1   
    33    12    32 1   
    34    12    42 1   
    35    12    43 1   
    36    13    17 1   
    37    13    44 1   
    38    14    23 1   
    39    14    26 1   
    40    14    45 1   
    41    15    46 1   
    42    15    47 1   
    43    15    48 1   
    44    15    62 1   
    45    16    27 1   
    46    16    49 1   
    47    16    50 1   
    48    16    51 1   
    49    17    62 1   
    50    18    24 1   
    51    18    52 1   
    52    20    22 ar  
    53    20    53 1   
    54    21    22 ar  
    55    23    33 1   
    56    23    54 1   
    57    23    55 1   
    58    24    56 1   
    59    25    27 1   
    60    25    57 1   
    61    25    58 1   
    62    25    59 1   
    63    26    60 1   
    64    31    62 2   
@<TRIPOS>SUBSTRUCTURE
     1 Q9E         1 TEMP              0 ****  ****    0 ROOT
