@<TRIPOS>MOLECULE
Q9F
   50    53     1     0     0
SMALL
No Charge or Current Charge


@<TRIPOS>ATOM
      1 C10        -20.5930    70.6730    19.0140 ca         1 Q9F       0.008500
      2 C13        -21.7460    72.5090    22.1760 cp         1 Q9F      -0.023000
      3 C15        -22.8020    71.8000    24.2820 ca         1 Q9F      -0.118500
      4 C17        -22.7820    74.1550    23.6830 ca         1 Q9F      -0.118500
      5 C20        -19.3520    72.7600    19.1900 ca         1 Q9F       0.008500
      6 C22        -21.4210    70.2480    14.8740 ca         1 Q9F      -0.199000
      7 C26        -22.7530    69.7970    14.7320 cp         1 Q9F      -0.007000
      8 C28        -24.2820    68.4640    13.2030 ca         1 Q9F      -0.097000
      9 C04        -22.1260    72.1600    16.2140 ca         1 Q9F      -0.247600
     10 C05        -21.1010    71.3970    15.6150 ca         1 Q9F       0.307000
     11 C09        -19.6270    71.5620    18.5060 ca         1 Q9F      -0.238500
     12 C11        -21.2750    70.9820    20.2030 ca         1 Q9F      -0.112000
     13 C12        -21.0140    72.1810    20.9110 cp         1 Q9F       0.013000
     14 C14        -22.1150    71.4930    23.0940 ca         1 Q9F      -0.093500
     15 C16        -23.1360    73.1320    24.5760 ca         1 Q9F      -0.118000
     16 C18        -22.0950    73.8470    22.4960 ca         1 Q9F      -0.093500
     17 C19        -20.0380    73.0620    20.3790 ca         1 Q9F      -0.112000
     18 C23        -23.4530    71.7020    16.1020 ca         1 Q9F       0.221100
     19 C25        -23.7620    70.5480    15.3730 ca         1 Q9F      -0.194000
     20 C27        -23.0800    68.5600    13.9510 cp         1 Q9F       0.001000
     21 C29        -24.5900    67.3040    12.4700 ca         1 Q9F      -0.111000
     22 C30        -23.7030    66.2170    12.4720 ca         1 Q9F       0.108000
     23 C32        -22.5080    66.2870    13.2040 ca         1 Q9F      -0.111000
     24 C33        -22.2000    67.4470    13.9360 ca         1 Q9F      -0.097000
     25 N06        -19.7600    71.7210    15.7390 nu         1 Q9F      -0.850100
     26 O01        -21.1250    74.2790    16.4080 o          1 Q9F      -0.671500
     27 O03        -22.5670    73.7070    17.8950 o          1 Q9F      -0.671500
     28 O08        -18.7450    69.7240    16.7620 o          1 Q9F      -0.571000
     29 O21        -17.5690    71.9990    16.8350 o          1 Q9F      -0.571000
     30 O24        -24.4630    72.3730    16.7170 oh         1 Q9F      -0.635100
     31 S07        -18.7710    71.1730    16.9760 sy         1 Q9F       1.143600
     32 Cl31       -24.0880    64.7660    11.5560 cl         1 Q9F      -0.234000
     33 H101       -20.8250    69.7480    18.4880 ha         1 Q9F       0.132000
     34 H151       -23.0720    71.0060    24.9740 ha         1 Q9F       0.104500
     35 H171       -23.0430    75.1870    23.9070 ha         1 Q9F       0.104500
     36 H201       -18.6140    73.4610    18.8050 ha         1 Q9F       0.132000
     37 H221       -20.6190    69.6880    14.4020 ha         1 Q9F       0.096000
     38 H281       -24.9750    69.3010    13.1790 ha         1 Q9F       0.126500
     39 H111       -22.0280    70.2890    20.5680 ha         1 Q9F       0.109000
     40 H141       -21.8540    70.4570    22.8920 ha         1 Q9F       0.119500
     41 H161       -23.6680    73.3700    25.4950 ha         1 Q9F       0.101000
     42 H181       -21.8430    74.6520    21.8110 ha         1 Q9F       0.119500
     43 H191       -19.8020    73.9880    20.8970 ha         1 Q9F       0.109000
     44 H251       -24.7970    70.2240    15.3170 ha         1 Q9F       0.112000
     45 H291       -25.5140    67.2490    11.9000 ha         1 Q9F       0.119500
     46 H321       -21.8240    65.4420    13.2080 ha         1 Q9F       0.119500
     47 H331       -21.2760    67.4770    14.5090 ha         1 Q9F       0.126500
     48 H061       -19.2190    71.4400    14.9350 hn         1 Q9F       0.476000
     49 H241       -24.0000    73.0160    17.3230 ho         1 Q9F       0.554000
     50 C02        -21.8490    73.4490    16.9370 c          1 Q9F       0.724600
@<TRIPOS>BOND
     1     1    11 ar  
     2     1    12 ar  
     3     1    33 1   
     4     2    13 1   
     5     2    14 ar  
     6     2    16 ar  
     7     3    14 ar  
     8     3    15 ar  
     9     3    34 1   
    10     4    15 ar  
    11     4    16 ar  
    12     4    35 1   
    13     5    11 ar  
    14     5    17 ar  
    15     5    36 1   
    16     6     7 ar  
    17     6    10 ar  
    18     6    37 1   
    19     7    19 ar  
    20     7    20 1   
    21     8    20 ar  
    22     8    21 ar  
    23     8    38 1   
    24     9    10 ar  
    25     9    18 ar  
    26     9    50 1   
    27    10    25 1   
    28    11    31 1   
    29    12    13 ar  
    30    12    39 1   
    31    13    17 ar  
    32    14    40 1   
    33    15    41 1   
    34    16    42 1   
    35    17    43 1   
    36    18    19 ar  
    37    18    30 1   
    38    19    44 1   
    39    20    24 ar  
    40    21    22 ar  
    41    21    45 1   
    42    22    23 ar  
    43    22    32 1   
    44    23    24 ar  
    45    23    46 1   
    46    24    47 1   
    47    25    31 1   
    48    25    48 1   
    49    26    50 1   
    50    27    50 1   
    51    28    31 2   
    52    29    31 2   
    53    30    49 1   
@<TRIPOS>SUBSTRUCTURE
     1 Q9F         1 TEMP              0 ****  ****    0 ROOT
