@<TRIPOS>MOLECULE
Q9F
   50    53     1     0     0
SMALL
abcg2


@<TRIPOS>ATOM
      1 C10        -21.0000    70.6900    19.6280 ca         1 Q9F       0.008500
      2 C13        -21.3540    73.0740    22.5300 cp         1 Q9F      -0.023000
      3 C15        -22.0730    72.8530    24.8290 ca         1 Q9F      -0.118500
      4 C17        -21.9420    75.0300    23.8260 ca         1 Q9F      -0.118500
      5 C20        -19.4830    72.5390    19.3020 ca         1 Q9F       0.008500
      6 C22        -21.6920    69.9990    14.8060 ca         1 Q9F      -0.199000
      7 C26        -22.9070    69.4310    14.4260 cp         1 Q9F      -0.007000
      8 C28        -24.0640    68.4730    12.4300 ca         1 Q9F      -0.097000
      9 C04        -22.7850    71.3180    16.5330 ca         1 Q9F      -0.247600
     10 C05        -21.6360    70.9270    15.8370 ca         1 Q9F       0.307000
     11 C09        -20.0350    71.3400    18.8750 ca         1 Q9F      -0.238500
     12 C11        -21.4260    71.2600    20.8170 ca         1 Q9F      -0.112000
     13 C12        -20.8930    72.4680    21.2660 cp         1 Q9F       0.013000
     14 C14        -21.6430    72.2800    23.6410 ca         1 Q9F      -0.093500
     15 C16        -22.2240    74.2300    24.9250 ca         1 Q9F      -0.118000
     16 C18        -21.5100    74.4570    22.6390 ca         1 Q9F      -0.093500
     17 C19        -19.9100    73.0930    20.4940 ca         1 Q9F      -0.112000
     18 C23        -23.9950    70.6590    16.2050 ca         1 Q9F       0.221100
     19 C25        -24.0470    69.7480    15.1490 ca         1 Q9F      -0.194000
     20 C27        -22.9700    68.4830    13.2960 cp         1 Q9F       0.001000
     21 C29        -24.1260    67.5980    11.3560 ca         1 Q9F      -0.111000
     22 C30        -23.0780    66.7170    11.1420 ca         1 Q9F       0.108000
     23 C32        -21.9800    66.6980    11.9870 ca         1 Q9F      -0.111000
     24 C33        -21.9330    67.5800    13.0550 ca         1 Q9F      -0.097000
     25 N06        -20.3540    71.4420    16.1840 nu         1 Q9F      -0.850100
     26 O01        -22.0100    73.3540    17.5090 o          1 Q9F      -0.671500
     27 O03        -23.8910    72.4560    18.2710 o          1 Q9F      -0.671500
     28 O08        -19.8420    69.2220    17.3790 o          1 Q9F      -0.571000
     29 O21        -18.0990    71.0140    17.1350 o          1 Q9F      -0.571000
     30 O24        -25.1040    70.9060    16.8870 oh         1 Q9F      -0.635100
     31 S07        -19.4850    70.6320    17.3560 sy         1 Q9F       1.143600
     32 CL31       -23.1440    65.6230     9.7990 cl         1 Q9F      -0.234000
     33 H101       -21.4310    69.7550    19.2980 ha         1 Q9F       0.132000
     34 H151       -22.2850    72.2220    25.6830 ha         1 Q9F       0.104500
     35 H171       -22.0660    76.1030    23.8880 ha         1 Q9F       0.104500
     36 H201       -18.7230    73.0410    18.7190 ha         1 Q9F       0.132000
     37 H221       -20.7800    69.7400    14.2840 ha         1 Q9F       0.096000
     38 H281       -24.8770    69.1720    12.5770 ha         1 Q9F       0.126500
     39 H111       -22.1980    70.7620    21.3890 ha         1 Q9F       0.109000
     40 H141       -21.5120    71.2060    23.5870 ha         1 Q9F       0.119500
     41 H161       -22.5610    74.6780    25.8520 ha         1 Q9F       0.101000
     42 H181       -21.3140    75.0920    21.7840 ha         1 Q9F       0.119500
     43 H191       -19.4580    74.0160    20.8330 ha         1 Q9F       0.109000
     44 H251       -24.9960    69.2770    14.9200 ha         1 Q9F       0.112000
     45 H291       -24.9790    67.6140    10.6920 ha         1 Q9F       0.119500
     46 H321       -21.1700    66.0010    11.8220 ha         1 Q9F       0.119500
     47 H331       -21.0790    67.5420    13.7190 ha         1 Q9F       0.126500
     48 H061       -19.7500    71.6170    15.3860 hn         1 Q9F       0.476000
     49 H241       -24.7890    71.5660    17.6250 ho         1 Q9F       0.554000
     50 C02        -22.8610    72.4720    17.5180 c          1 Q9F       0.724600
@<TRIPOS>BOND
     1     1    11 ar  
     2     1    12 ar  
     3     1    33 1   
     4     2    13 1   
     5     2    14 ar  
     6     2    16 ar  
     7     3    14 ar  
     8     3    15 ar  
     9     3    34 1   
    10     4    15 ar  
    11     4    16 ar  
    12     4    35 1   
    13     5    11 ar  
    14     5    17 ar  
    15     5    36 1   
    16     6     7 ar  
    17     6    10 ar  
    18     6    37 1   
    19     7    19 ar  
    20     7    20 1   
    21     8    20 ar  
    22     8    21 ar  
    23     8    38 1   
    24     9    10 ar  
    25     9    18 ar  
    26     9    50 1   
    27    10    25 1   
    28    11    31 1   
    29    12    13 ar  
    30    12    39 1   
    31    13    17 ar  
    32    14    40 1   
    33    15    41 1   
    34    16    42 1   
    35    17    43 1   
    36    18    19 ar  
    37    18    30 1   
    38    19    44 1   
    39    20    24 ar  
    40    21    22 ar  
    41    21    45 1   
    42    22    23 ar  
    43    22    32 1   
    44    23    24 ar  
    45    23    46 1   
    46    24    47 1   
    47    25    31 1   
    48    25    48 1   
    49    26    50 1   
    50    27    50 1   
    51    28    31 2   
    52    29    31 2   
    53    30    49 1   
@<TRIPOS>SUBSTRUCTURE
     1 Q9F         1 TEMP              0 ****  ****    0 ROOT
