@<TRIPOS>MOLECULE
Q9G
   39    42     1     0     0
SMALL
No Charge or Current Charge


@<TRIPOS>ATOM
      1 N01         -0.3920    -1.4720     0.7470 nb         1 Q9G      -0.681000
      2 C02         -1.7260    -1.3690     0.8140 ca         1 Q9G       0.399500
      3 C03         -2.4040    -0.2530     0.4240 ca         1 Q9G      -0.293900
      4 C04         -1.7480     0.8890    -0.0650 ca         1 Q9G       0.049700
      5 C05         -0.3360     0.7950    -0.1640 ca         1 Q9G      -0.164300
      6 C06          0.2950    -0.4150     0.2540 cp         1 Q9G       0.448500
      7 C07          1.7770    -0.5860     0.1960 cp         1 Q9G      -0.118500
      8 C08         -2.5160     2.1510    -0.4840 c6         1 Q9G      -0.041100
      9 C09         -1.6160     3.3900    -0.6860 c6         1 Q9G      -0.073400
     10 C10         -0.3490     3.0160    -1.4760 c6         1 Q9G      -0.075400
     11 C11          0.4860     1.9840    -0.6890 c6         1 Q9G      -0.019100
     12 N12         -2.6660    -2.2810     1.2560 na         1 Q9G      -0.167100
     13 N13         -3.9750    -1.7740     1.1470 nc         1 Q9G      -0.575100
     14 C14         -3.7900    -0.5630     0.6490 cd         1 Q9G       0.553800
     15 N15         -4.8880     0.1590     0.3840 nv         1 Q9G      -0.960200
     16 C16          2.5710    -0.2580     1.3230 ca         1 Q9G      -0.128000
     17 C17          3.9650    -0.3960     1.2850 ca         1 Q9G       0.163000
     18 F18          4.7030    -0.0780     2.3700 f          1 Q9G      -0.179000
     19 C19          4.5960    -0.8630     0.1240 ca         1 Q9G      -0.143000
     20 C20          3.8280    -1.1940    -1.0050 ca         1 Q9G      -0.090000
     21 C21          2.4240    -1.0600    -0.9800 ca         1 Q9G      -0.065300
     22 C22          1.6210    -1.4290    -2.2240 c3         1 Q9G      -0.049800
     23 H12         -2.4570    -3.2090     1.6130 hn         1 Q9G       0.388000
     24 H081        -3.0530     1.9420    -1.4190 hc         1 Q9G       0.058200
     25 H082        -3.2770     2.3960     0.2680 hc         1 Q9G       0.058200
     26 H111         0.9670     2.4840     0.1640 hc         1 Q9G       0.052200
     27 H112         1.3050     1.6320    -1.3310 hc         1 Q9G       0.052200
     28 H16          2.0970     0.1080     2.2310 ha         1 Q9G       0.137000
     29 H091        -2.1740     4.1770    -1.2120 hc         1 Q9G       0.046700
     30 H092        -1.3310     3.8060     0.2900 hc         1 Q9G       0.046700
     31 H101        -0.6280     2.6010    -2.4550 hc         1 Q9G       0.043700
     32 H102         0.2540     3.9130    -1.6730 hc         1 Q9G       0.043700
     33 H151        -4.8060     0.9240    -0.2730 hn         1 Q9G       0.446000
     34 H152        -5.7750    -0.3300     0.4160 hn         1 Q9G       0.446000
     35 H19          5.6780    -0.9680     0.1000 ha         1 Q9G       0.132000
     36 H20          4.3270    -1.5560    -1.9020 ha         1 Q9G       0.117000
     37 H221         1.0630    -0.5660    -2.6050 hc         1 Q9G       0.047033
     38 H222         2.2650    -1.7880    -3.0350 hc         1 Q9G       0.047033
     39 H223         0.8990    -2.2240    -2.0030 hc         1 Q9G       0.047033
@<TRIPOS>BOND
     1     1     2 ar  
     2     1     6 ar  
     3     2     3 ar  
     4     2    12 1   
     5     3     4 ar  
     6     3    14 1   
     7     4     5 ar  
     8     4     8 1   
     9     5     6 ar  
    10     5    11 1   
    11     6     7 1   
    12     7    16 ar  
    13     7    21 ar  
    14     8     9 1   
    15     8    24 1   
    16     8    25 1   
    17     9    10 1   
    18     9    29 1   
    19     9    30 1   
    20    10    11 1   
    21    10    31 1   
    22    10    32 1   
    23    11    26 1   
    24    11    27 1   
    25    12    13 1   
    26    12    23 1   
    27    13    14 2   
    28    14    15 1   
    29    15    33 1   
    30    15    34 1   
    31    16    17 ar  
    32    16    28 1   
    33    17    18 1   
    34    17    19 ar  
    35    19    20 ar  
    36    19    35 1   
    37    20    21 ar  
    38    20    36 1   
    39    21    22 1   
    40    22    37 1   
    41    22    38 1   
    42    22    39 1   
@<TRIPOS>SUBSTRUCTURE
     1 Q9G         1 TEMP              0 ****  ****    0 ROOT
