@<TRIPOS>MOLECULE
Q9G
   39    42     1     0     0
SMALL
abcg2


@<TRIPOS>ATOM
      1 N01         -0.3670    -1.4800     0.6590 nb         1 Q9G      -0.681000
      2 C02         -1.6890    -1.3560     0.7080 ca         1 Q9G       0.399500
      3 C03         -2.4210    -0.2160     0.3450 ca         1 Q9G      -0.293900
      4 C04         -1.7250     0.9150    -0.0930 ca         1 Q9G       0.049700
      5 C05         -0.3400     0.8060    -0.1660 ca         1 Q9G      -0.164300
      6 C06          0.2740    -0.4090     0.2260 cp         1 Q9G       0.448500
      7 C07          1.7560    -0.5410     0.1610 cp         1 Q9G      -0.118500
      8 C08         -2.4530     2.1760    -0.4660 c6         1 Q9G      -0.041100
      9 C09         -1.5360     3.3850    -0.5860 c6         1 Q9G      -0.073400
     10 C10         -0.2890     3.0200    -1.3750 c6         1 Q9G      -0.075400
     11 C11          0.5130     1.9580    -0.6370 c6         1 Q9G      -0.019100
     12 N12         -2.5780    -2.2760     1.1180 na         1 Q9G      -0.167100
     13 N13         -3.8480    -1.8210     1.0290 nc         1 Q9G      -0.575100
     14 C14         -3.7830    -0.5940     0.5770 cd         1 Q9G       0.553800
     15 N15         -4.9050     0.1950     0.4300 nv         1 Q9G      -0.960200
     16 C16          2.5190    -0.1000     1.2350 ca         1 Q9G      -0.128000
     17 C17          3.8930    -0.2360     1.1820 ca         1 Q9G       0.163000
     18 F18          4.6270     0.1890     2.2240 f          1 Q9G      -0.179000
     19 C19          4.5290    -0.7940     0.0930 ca         1 Q9G      -0.143000
     20 C20          3.7510    -1.2260    -0.9720 ca         1 Q9G      -0.090000
     21 C21          2.3650    -1.1090    -0.9630 ca         1 Q9G      -0.065300
     22 C22          1.5470    -1.5670    -2.1360 c3         1 Q9G      -0.049800
     23 H12         -2.3970    -3.2060     1.4570 hn         1 Q9G       0.388000
     24 H081        -2.9630     2.0080    -1.4210 hc         1 Q9G       0.058200
     25 H082        -3.2400     2.3640     0.2680 hc         1 Q9G       0.058200
     26 H111         1.0130     2.4160     0.2240 hc         1 Q9G       0.052200
     27 H112         1.3180     1.5910    -1.2770 hc         1 Q9G       0.052200
     28 H16          2.0470     0.3430     2.1030 ha         1 Q9G       0.137000
     29 H091        -2.0770     4.2040    -1.0620 hc         1 Q9G       0.046700
     30 H092        -1.2480     3.7340     0.4100 hc         1 Q9G       0.046700
     31 H101        -0.5790     2.6470    -2.3620 hc         1 Q9G       0.043700
     32 H102         0.3360     3.9000    -1.5420 hc         1 Q9G       0.043700
     33 H151        -4.9070     0.7540    -0.4100 hn         1 Q9G       0.446000
     34 H152        -5.7650    -0.3290     0.4980 hn         1 Q9G       0.446000
     35 H19          5.6070    -0.8910     0.0720 ha         1 Q9G       0.132000
     36 H20          4.2410    -1.6630    -1.8340 ha         1 Q9G       0.117000
     37 H221         0.9830    -0.7420    -2.5760 hc         1 Q9G       0.047033
     38 H222         2.1800    -1.9860    -2.9160 hc         1 Q9G       0.047033
     39 H223         0.8220    -2.3300    -1.8500 hc         1 Q9G       0.047033
@<TRIPOS>BOND
     1     1     2 ar  
     2     1     6 ar  
     3     2     3 ar  
     4     2    12 1   
     5     3     4 ar  
     6     3    14 1   
     7     4     5 ar  
     8     4     8 1   
     9     5     6 ar  
    10     5    11 1   
    11     6     7 1   
    12     7    16 ar  
    13     7    21 ar  
    14     8     9 1   
    15     8    24 1   
    16     8    25 1   
    17     9    10 1   
    18     9    29 1   
    19     9    30 1   
    20    10    11 1   
    21    10    31 1   
    22    10    32 1   
    23    11    26 1   
    24    11    27 1   
    25    12    13 1   
    26    12    23 1   
    27    13    14 2   
    28    14    15 1   
    29    15    33 1   
    30    15    34 1   
    31    16    17 ar  
    32    16    28 1   
    33    17    18 1   
    34    17    19 ar  
    35    19    20 ar  
    36    19    35 1   
    37    20    21 ar  
    38    20    36 1   
    39    21    22 1   
    40    22    37 1   
    41    22    38 1   
    42    22    39 1   
@<TRIPOS>SUBSTRUCTURE
     1 Q9G         1 TEMP              0 ****  ****    0 ROOT
