@<TRIPOS>MOLECULE
Q9H
   75    80     1     0     0
SMALL
No Charge or Current Charge


@<TRIPOS>ATOM
      1 O3          15.7770     6.1340    12.1550 oh         1 Q9H      -0.695000
      2 C4          14.8830     6.6730     7.2100 ca         1 Q9H       0.137500
      3 C5          16.7740     5.6940     7.8730 cc         1 Q9H       0.411700
      4 O4          18.9650     7.4200    15.5290 oh         1 Q9H      -0.704000
      5 C6          15.1230     5.5210     6.5030 ca         1 Q9H      -0.103600
      6 C7          16.1670     7.8410     9.0660 c5         1 Q9H       0.282300
      7 C8          14.8580     9.1200    10.5000 c5         1 Q9H       0.108300
      8 N2          13.1010     5.8810     5.2680 nb         1 Q9H      -0.293000
      9 C9          13.5100     9.2010    11.2690 c3         1 Q9H       0.144600
     10 O5          18.5950    10.0570    15.8260 oh         1 Q9H      -0.691000
     11 C10         13.6660    11.0920    12.8630 c3         1 Q9H       0.254700
     12 C11         15.1070    11.3630    12.8030 c1         1 Q9H      -0.143100
     13 N3          13.7970     7.4380     6.9860 nb         1 Q9H      -0.227000
     14 C13         17.7010    11.6520    12.4320 cc         1 Q9H       0.467700
     15 O7          17.3140    10.0750     9.0130 oh         1 Q9H      -0.681000
     16 C14         19.5630    12.4060    11.6800 ca         1 Q9H      -0.101600
     17 C15         20.6120    13.1570    11.1140 ca         1 Q9H       0.454900
     18 N4          15.9320     6.7900     8.0800 na         1 Q9H      -0.295300
     19 N           13.5320     4.1280     1.0140 n8         1 Q9H      -0.996200
     20 C           14.1400     4.5150     2.3150 c3         1 Q9H       0.124800
     21 O           15.1280     7.7740    10.0740 os         1 Q9H      -0.435000
     22 C1          13.7230     3.5950     3.5030 c3         1 Q9H       0.230800
     23 C16         22.0310    11.4100    11.5240 ca         1 Q9H       0.188900
     24 C17         19.8450    11.1480    12.1500 ca         1 Q9H       0.147500
     25 C18         18.5140     9.4010    13.3830 c5         1 Q9H       0.315300
     26 C19         17.4100     7.3580    13.5610 c5         1 Q9H       0.167300
     27 C2          14.1970     5.1350     5.5120 ca         1 Q9H       0.446900
     28 C20         15.9400     6.8970    13.3630 c3         1 Q9H       0.152600
     29 C21         17.7160     7.8940    15.0130 c5         1 Q9H       0.109300
     30 C22         17.8230     9.4270    14.7810 c5         1 Q9H       0.078300
     31 C23         14.8800     9.8980     9.1580 c5         1 Q9H       0.154300
     32 C24         16.1870     9.3260     8.5310 c5         1 Q9H       0.138300
     33 C3          12.9570     6.9970     6.0200 ca         1 Q9H       0.179900
     34 N10         18.6670    10.6560    12.6390 na         1 Q9H      -0.266300
     35 N5          16.3060     4.8900     6.9000 nd         1 Q9H      -0.551100
     36 N6          18.2160    12.7410    11.8380 nd         1 Q9H      -0.519100
     37 N8          21.8550    12.6600    11.0300 nb         1 Q9H      -0.305000
     38 N9          21.0840    10.6200    12.0860 nb         1 Q9H      -0.217000
     39 O1          13.1970    10.5850    11.5860 os         1 Q9H      -0.459000
     40 O2          17.7170     8.4540    12.6510 os         1 Q9H      -0.426000
     41 H1          15.5830     6.7740    11.4220 ho         1 Q9H       0.502000
     42 H2          17.6840     5.5460     8.4430 h5         1 Q9H       0.066800
     43 H3          19.3090     8.2030    16.0320 ho         1 Q9H       0.524000
     44 H4          15.2550     3.4870     5.0110 hn         1 Q9H       0.513000
     45 H5          17.1360     7.6150     9.5280 h2         1 Q9H       0.071700
     46 H6          15.6820     9.4230    11.1530 h1         1 Q9H       0.082700
     47 H7          12.7270     8.7840    10.6220 h1         1 Q9H       0.069200
     48 H8          13.5510     8.5800    12.1730 h1         1 Q9H       0.069200
     49 H9          18.4680    11.0340    15.7490 ho         1 Q9H       0.513000
     50 H10         13.1500    12.0300    13.1050 h1         1 Q9H       0.058700
     51 H11         13.4570    10.3810    13.6740 h1         1 Q9H       0.058700
     52 H13         16.9260    10.9590     9.2290 ho         1 Q9H       0.498000
     53 H14         13.8790     4.7590     0.2800 hn         1 Q9H       0.394000
     54 H15         13.8960     3.2090     0.7280 hn         1 Q9H       0.394000
     55 H17         15.2340     4.4910     2.2080 h1         1 Q9H       0.038700
     56 H18         13.8450     5.5490     2.5390 h1         1 Q9H       0.038700
     57 H19         12.6310     3.6340     3.6260 h1         1 Q9H       0.063200
     58 H20         13.9860     2.5590     3.2500 h1         1 Q9H       0.063200
     59 H21         23.0370    10.9980    11.4630 h5         1 Q9H       0.047100
     60 H22         19.5300     8.9990    13.4950 h2         1 Q9H       0.118700
     61 H23         18.0690     6.5090    13.3320 h1         1 Q9H       0.101700
     62 H24         15.2820     7.7760    13.3640 h1         1 Q9H       0.021200
     63 H25         15.6580     6.2760    14.2220 h1         1 Q9H       0.021200
     64 H26         16.9030     7.6580    15.7140 h1         1 Q9H       0.051700
     65 H27         16.8180     9.8650    14.7250 h1         1 Q9H       0.058700
     66 H28         14.0070     9.6210     8.5500 h1         1 Q9H       0.073700
     67 H29         16.1450     9.3600     7.4340 h1         1 Q9H       0.068700
     68 H30         12.0740     7.6050     5.8270 h5         1 Q9H       0.045100
     69 N7          20.4330    14.4090    10.6170 nv         1 Q9H      -1.061900
     70 C12         16.3040    11.5270    12.6740 cg         1 Q9H      -0.095200
     71 O6          14.9370    11.3240     9.3250 oh         1 Q9H      -0.685000
     72 N1          14.3920     3.9770     4.7650 nu         1 Q9H      -0.914100
     73 H12         14.2370    11.5460     9.9870 ho         1 Q9H       0.517000
     74 H31         21.1320    14.7710     9.9740 hn         1 Q9H       0.509500
     75 H32         19.4740    14.7150    10.4680 hn         1 Q9H       0.509500
@<TRIPOS>BOND
     1     1    28 1   
     2     1    41 1   
     3     2     5 ar  
     4     2    13 ar  
     5     2    18 1   
     6     3    18 1   
     7     3    35 2   
     8     3    42 1   
     9     4    29 1   
    10     4    43 1   
    11     5    27 ar  
    12     5    35 1   
    13     6    18 1   
    14     6    21 1   
    15     6    32 1   
    16     6    45 1   
    17     7     9 1   
    18     7    21 1   
    19     7    31 1   
    20     7    46 1   
    21     8    27 ar  
    22     8    33 ar  
    23     9    39 1   
    24     9    47 1   
    25     9    48 1   
    26    10    30 1   
    27    10    49 1   
    28    11    12 1   
    29    11    39 1   
    30    11    50 1   
    31    11    51 1   
    32    12    70 3   
    33    13    33 ar  
    34    14    34 1   
    35    14    36 2   
    36    14    70 1   
    37    15    32 1   
    38    15    52 1   
    39    16    17 ar  
    40    16    24 ar  
    41    16    36 1   
    42    17    37 ar  
    43    17    69 1   
    44    19    20 1   
    45    19    53 1   
    46    19    54 1   
    47    20    22 1   
    48    20    55 1   
    49    20    56 1   
    50    22    57 1   
    51    22    58 1   
    52    22    72 1   
    53    23    37 ar  
    54    23    38 ar  
    55    23    59 1   
    56    24    34 1   
    57    24    38 ar  
    58    25    30 1   
    59    25    34 1   
    60    25    40 1   
    61    25    60 1   
    62    26    28 1   
    63    26    29 1   
    64    26    40 1   
    65    26    61 1   
    66    27    72 1   
    67    28    62 1   
    68    28    63 1   
    69    29    30 1   
    70    29    64 1   
    71    30    65 1   
    72    31    32 1   
    73    31    66 1   
    74    31    71 1   
    75    32    67 1   
    76    33    68 1   
    77    44    72 1   
    78    69    74 1   
    79    69    75 1   
    80    71    73 1   
@<TRIPOS>SUBSTRUCTURE
     1 Q9H         1 TEMP              0 ****  ****    0 ROOT
