@<TRIPOS>MOLECULE
Q9H
   75    80     1     0     0
SMALL
bcc


@<TRIPOS>ATOM
      1 O3          15.5560     6.9760    13.2120 oh         1 Q9H      -0.572800
      2 C4          15.1100     7.0110     6.2330 ca         1 Q9H       0.465800
      3 C5          17.2600     6.7500     5.9300 cc         1 Q9H       0.411700
      4 O4          18.3930     7.7420    16.8860 oh         1 Q9H      -0.581800
      5 C6          15.3910     5.9170     5.4310 ca         1 Q9H      -0.234200
      6 C7          16.6340     8.6620     7.4030 c5         1 Q9H       0.229800
      7 C8          15.5360     9.4890     9.2630 c5         1 Q9H       0.085100
      8 N2          13.0660     5.5790     5.3320 nb         1 Q9H      -0.819000
      9 C9          14.4950     8.9800    10.2460 c3         1 Q9H       0.121400
     10 O5          18.5800    10.4940    16.5650 oh         1 Q9H      -0.568800
     11 C10         14.0780    10.3340    12.1650 c3         1 Q9H       0.231500
     12 C11         15.4900    10.6140    12.4190 c1         1 Q9H      -0.143100
     13 N3          13.8980     7.4230     6.6010 nb         1 Q9H      -0.753000
     14 C13         18.0500    11.0670    12.6950 cc         1 Q9H       0.467700
     15 O7          16.9590    11.0440     7.0680 oh         1 Q9H      -0.558800
     16 C14         19.9600    11.9080    12.3530 ca         1 Q9H      -0.232200
     17 C15         21.1090    12.6200    11.9510 ca         1 Q9H       0.783200
     18 N4          16.3300     7.5450     6.5440 na         1 Q9H      -0.266000
     19 N           11.6690     2.9980     1.9520 n8         1 Q9H      -0.885800
     20 C           12.7100     3.8900     2.4370 c3         1 Q9H       0.124800
     21 O           16.1870     8.3660     8.6980 os         1 Q9H      -0.388600
     22 C1          13.3450     3.2940     3.6900 c3         1 Q9H       0.230800
     23 C16         22.3040    11.3210    13.4250 ca         1 Q9H       0.714900
     24 C17         20.1490    10.9210    13.3070 ca         1 Q9H       0.475800
     25 C18         18.6480     9.3340    14.4750 c5         1 Q9H       0.262800
     26 C19         17.1370     7.6290    14.8620 c5         1 Q9H       0.144100
     27 C2          14.2870     5.1730     4.9700 ca         1 Q9H       0.775200
     28 C20         15.6810     7.6280    14.4510 c3         1 Q9H       0.129400
     29 C21         17.3600     8.3770    16.1770 c5         1 Q9H       0.086100
     30 C22         17.8040     9.7530    15.6730 c5         1 Q9H       0.055100
     31 C23         14.9450    10.2360     8.0620 c5         1 Q9H       0.131100
     32 C24         16.0090    10.0170     6.9860 c5         1 Q9H       0.115100
     33 C3          12.9450     6.6540     6.1070 ca         1 Q9H       0.705900
     34 N10         18.9140    10.3800    13.5210 na         1 Q9H      -0.237000
     35 N5          16.7420     5.7710     5.2520 nd         1 Q9H      -0.551100
     36 N6          18.6520    11.9850    11.9830 nd         1 Q9H      -0.519100
     37 N8          22.2750    12.2930    12.5170 nb         1 Q9H      -0.831000
     38 N9          21.3020    10.5880    13.8790 nb         1 Q9H      -0.743000
     39 O1          13.8030    10.0800    10.8110 os         1 Q9H      -0.412600
     40 O2          17.9440     8.2890    13.8750 os         1 Q9H      -0.379600
     41 H1          14.6200     6.9020    13.0040 ho         1 Q9H       0.403000
     42 H2          18.3160     6.9570     6.0260 h5         1 Q9H       0.066800
     43 H3          18.7210     8.3590    17.5510 ho         1 Q9H       0.425000
     44 H4          15.3730     3.8440     3.9290 hn         1 Q9H       0.457800
     45 H5          17.7250     8.7570     7.3800 h2         1 Q9H       0.071700
     46 H6          16.2590    10.1360     9.7790 h1         1 Q9H       0.082700
     47 H7          13.7680     8.3570     9.7140 h1         1 Q9H       0.069200
     48 H8          14.9620     8.3580    11.0170 h1         1 Q9H       0.069200
     49 H9          18.0010    11.0140    17.1300 ho         1 Q9H       0.414000
     50 H10         13.4720    11.1940    12.4570 h1         1 Q9H       0.058700
     51 H11         13.7690     9.4930    12.8010 h1         1 Q9H       0.058700
     52 H13         17.5760    10.9460     6.3360 ho         1 Q9H       0.399000
     53 H14         11.1550     3.4490     1.2070 hn         1 Q9H       0.338800
     54 H15         12.0930     2.1780     1.5370 hn         1 Q9H       0.338800
     55 H17         13.5000     4.0980     1.7030 h1         1 Q9H       0.038700
     56 H18         12.2560     4.8490     2.6920 h1         1 Q9H       0.038700
     57 H19         12.5840     3.1660     4.4600 h1         1 Q9H       0.063200
     58 H20         13.7460     2.3050     3.4650 h1         1 Q9H       0.063200
     59 H21         23.2800    11.1060    13.8460 h5         1 Q9H       0.047100
     60 H22         19.6360     9.0130    14.8250 h2         1 Q9H       0.118700
     61 H23         17.4810     6.5930    14.9560 h1         1 Q9H       0.101700
     62 H24         15.3050     8.6590    14.4150 h1         1 Q9H       0.021200
     63 H25         15.1210     7.1110    15.2400 h1         1 Q9H       0.021200
     64 H26         16.4390     8.4350    16.7720 h1         1 Q9H       0.051700
     65 H27         16.9230    10.3120    15.3300 h1         1 Q9H       0.058700
     66 H28         14.0410     9.7030     7.7410 h1         1 Q9H       0.073700
     67 H29         15.5720     9.9550     5.9830 h1         1 Q9H       0.068700
     68 H30         11.9270     6.9310     6.3630 h5         1 Q9H       0.045100
     69 N7          21.0700    13.5890    11.0390 nv         1 Q9H      -0.951500
     70 C12         16.6670    10.7910    12.5940 cg         1 Q9H      -0.095200
     71 O6          14.7020    11.5950     8.2740 oh         1 Q9H      -0.562800
     72 N1          14.4360     4.0860     4.2080 nu         1 Q9H      -0.858900
     73 H12         14.0170    11.6650     8.9470 ho         1 Q9H       0.418000
     74 H31         21.9100    14.0780    10.7810 hn         1 Q9H       0.454300
     75 H32         20.2070    13.8560    10.5990 hn         1 Q9H       0.454300
@<TRIPOS>BOND
     1     1    28 1   
     2     1    41 1   
     3     2     5 ar  
     4     2    13 ar  
     5     2    18 1   
     6     3    18 1   
     7     3    35 2   
     8     3    42 1   
     9     4    29 1   
    10     4    43 1   
    11     5    27 ar  
    12     5    35 1   
    13     6    18 1   
    14     6    21 1   
    15     6    32 1   
    16     6    45 1   
    17     7     9 1   
    18     7    21 1   
    19     7    31 1   
    20     7    46 1   
    21     8    27 ar  
    22     8    33 ar  
    23     9    39 1   
    24     9    47 1   
    25     9    48 1   
    26    10    30 1   
    27    10    49 1   
    28    11    12 1   
    29    11    39 1   
    30    11    50 1   
    31    11    51 1   
    32    12    70 3   
    33    13    33 ar  
    34    14    34 1   
    35    14    36 2   
    36    14    70 1   
    37    15    32 1   
    38    15    52 1   
    39    16    17 ar  
    40    16    24 ar  
    41    16    36 1   
    42    17    37 ar  
    43    17    69 1   
    44    19    20 1   
    45    19    53 1   
    46    19    54 1   
    47    20    22 1   
    48    20    55 1   
    49    20    56 1   
    50    22    57 1   
    51    22    58 1   
    52    22    72 1   
    53    23    37 ar  
    54    23    38 ar  
    55    23    59 1   
    56    24    34 1   
    57    24    38 ar  
    58    25    30 1   
    59    25    34 1   
    60    25    40 1   
    61    25    60 1   
    62    26    28 1   
    63    26    29 1   
    64    26    40 1   
    65    26    61 1   
    66    27    72 1   
    67    28    62 1   
    68    28    63 1   
    69    29    30 1   
    70    29    64 1   
    71    30    65 1   
    72    31    32 1   
    73    31    66 1   
    74    31    71 1   
    75    32    67 1   
    76    33    68 1   
    77    44    72 1   
    78    69    74 1   
    79    69    75 1   
    80    71    73 1   
@<TRIPOS>SUBSTRUCTURE
     1 Q9H         1 TEMP              0 ****  ****    0 ROOT
