@<TRIPOS>MOLECULE
Q9I
   24    24     1     0     0
SMALL
abcg2


@<TRIPOS>ATOM
      1 C10         -8.6200   -12.4640   -17.7200 ca         1 Q9I      -0.125500
      2 C13         -8.0000   -14.1320   -15.5630 ca         1 Q9I       0.000000
      3 C01         -9.8380   -13.1810   -12.7840 c3         1 Q9I       0.150100
      4 C04        -10.1860    -9.8450   -13.0540 c3         1 Q9I       0.141900
      5 C08         -7.9820   -12.7460   -15.4230 ca         1 Q9I      -0.311500
      6 C09         -8.2920   -11.9090   -16.4920 ca         1 Q9I       0.000000
      7 C11         -8.6370   -13.8480   -17.8530 ca         1 Q9I       0.173000
      8 C12         -8.3300   -14.6890   -16.7900 ca         1 Q9I      -0.125500
      9 N02         -9.1290   -11.9260   -13.0430 n3         1 Q9I      -0.448000
     10 O03         -9.9760   -11.0610   -13.7850 os         1 Q9I      -0.246300
     11 O06         -6.8670   -12.9650   -13.0560 o          1 Q9I      -0.530000
     12 O07         -7.1830   -10.6880   -14.0240 o          1 Q9I      -0.530000
     13 S05         -7.6440   -12.0390   -13.8410 sy         1 Q9I       1.145600
     14 CL14        -9.0550   -14.5460   -19.3940 cl         1 Q9I      -0.193000
     15 H1          -8.8580   -11.8300   -18.5620 ha         1 Q9I       0.136500
     16 H2          -7.7530   -14.7720   -14.7290 ha         1 Q9I       0.140500
     17 H3         -10.6690   -12.9520   -12.1200 h1         1 Q9I       0.062367
     18 H4         -10.2160   -13.6310   -13.7050 h1         1 Q9I       0.062367
     19 H5          -9.1590   -13.8670   -12.2830 h1         1 Q9I       0.062367
     20 H6         -10.8730    -9.2630   -13.6660 h1         1 Q9I       0.052700
     21 H7         -10.6360   -10.0590   -12.0830 h1         1 Q9I       0.052700
     22 H8          -9.2470    -9.3060   -12.9270 h1         1 Q9I       0.052700
     23 H9          -8.2710   -10.8370   -16.3690 ha         1 Q9I       0.140500
     24 H10         -8.3470   -15.7620   -16.9200 ha         1 Q9I       0.136500
@<TRIPOS>BOND
     1     1     6 ar  
     2     1     7 ar  
     3     1    15 1   
     4     2     5 ar  
     5     2     8 ar  
     6     2    16 1   
     7     3     9 1   
     8     3    17 1   
     9     3    18 1   
    10     3    19 1   
    11     4    10 1   
    12     4    20 1   
    13     4    21 1   
    14     4    22 1   
    15     5     6 ar  
    16     5    13 1   
    17     6    23 1   
    18     7     8 ar  
    19     7    14 1   
    20     8    24 1   
    21     9    10 1   
    22     9    13 1   
    23    11    13 2   
    24    12    13 2   
@<TRIPOS>SUBSTRUCTURE
     1 Q9I         1 TEMP              0 ****  ****    0 ROOT
