@<TRIPOS>MOLECULE
Q9I
   24    24     1     0     0
SMALL
No Charge or Current Charge


@<TRIPOS>ATOM
      1 C10         -8.7510   -12.5040   -17.6770 ca         1 Q9I      -0.125500
      2 C13         -7.8860   -14.1800   -15.5880 ca         1 Q9I       0.000000
      3 C01         -9.8750   -13.1520   -12.8460 c3         1 Q9I       0.150100
      4 C04        -10.1700    -9.7520   -13.0540 c3         1 Q9I       0.141900
      5 C08         -7.9900   -12.7880   -15.3790 ca         1 Q9I      -0.311500
      6 C09         -8.4230   -11.9500   -16.4280 ca         1 Q9I       0.000000
      7 C11         -8.6470   -13.8880   -17.8820 ca         1 Q9I       0.173000
      8 C12         -8.2160   -14.7250   -16.8410 ca         1 Q9I      -0.125500
      9 N02         -9.1130   -11.8990   -13.0100 n3         1 Q9I      -0.448000
     10 O03         -9.9950   -10.9860   -13.7730 os         1 Q9I      -0.246300
     11 O06         -6.8250   -13.0560   -12.9790 o          1 Q9I      -0.530000
     12 O07         -7.0530   -10.7150   -13.9690 o          1 Q9I      -0.530000
     13 S05         -7.5760   -12.0740   -13.7720 sy         1 Q9I       1.145600
     14 Cl14        -9.0590   -14.5770   -19.4470 cl         1 Q9I      -0.193000
     15 H1          -9.0860   -11.8600   -18.4860 ha         1 Q9I       0.136500
     16 H2          -7.5530   -14.8420   -14.7890 ha         1 Q9I       0.140500
     17 H3         -10.8130   -12.9590   -12.3090 h1         1 Q9I       0.062367
     18 H4         -10.1280   -13.5940   -13.8190 h1         1 Q9I       0.062367
     19 H5          -9.3030   -13.8880   -12.2680 h1         1 Q9I       0.062367
     20 H6         -10.8280    -9.0760   -13.6120 h1         1 Q9I       0.052700
     21 H7         -10.6230    -9.9360   -12.0710 h1         1 Q9I       0.052700
     22 H8          -9.2080    -9.2460   -12.9040 h1         1 Q9I       0.052700
     23 H9          -8.5110   -10.8750   -16.2780 ha         1 Q9I       0.140500
     24 H10         -8.1370   -15.7970   -17.0050 ha         1 Q9I       0.136500
@<TRIPOS>BOND
     1     1     6 ar  
     2     1     7 ar  
     3     1    15 1   
     4     2     5 ar  
     5     2     8 ar  
     6     2    16 1   
     7     3     9 1   
     8     3    17 1   
     9     3    18 1   
    10     3    19 1   
    11     4    10 1   
    12     4    20 1   
    13     4    21 1   
    14     4    22 1   
    15     5     6 ar  
    16     5    13 1   
    17     6    23 1   
    18     7     8 ar  
    19     7    14 1   
    20     8    24 1   
    21     9    10 1   
    22     9    13 1   
    23    11    13 2   
    24    12    13 2   
@<TRIPOS>SUBSTRUCTURE
     1 Q9I         1 TEMP              0 ****  ****    0 ROOT
