@<TRIPOS>MOLECULE
Q9J
   42    46     1     0     0
SMALL
No Charge or Current Charge


@<TRIPOS>ATOM
      1 C10          4.6610    -2.0450    -0.8760 c5         1 Q9J      -0.115400
      2 C13          2.6490    -2.0650     0.8540 c3         1 Q9J       0.092600
      3 C17         -1.5960     0.1610     0.2230 ca         1 Q9J      -0.134500
      4 C20         -4.3800     0.3670     0.5300 ca         1 Q9J      -0.180000
      5 C22         -5.9760    -1.3210    -0.0690 cc         1 Q9J       0.386100
      6 C24         -3.8420    -0.7900     0.0080 ca         1 Q9J       0.078400
      7 N01         -0.4380     2.7550    -1.0220 nt         1 Q9J      -0.598000
      8 O03          1.6410     3.1940    -0.4340 o          1 Q9J      -0.664100
      9 C04          0.8560     0.9900    -0.0220 cc         1 Q9J      -0.366600
     10 C05          2.0430     0.3840     0.2110 cd         1 Q9J       0.325000
     11 N06          3.2800     0.9650     0.1000 nu         1 Q9J      -0.934200
     12 C07          4.5920     0.3160    -0.1800 c5         1 Q9J       0.226500
     13 C08          4.8430    -0.6260     1.0370 c5         1 Q9J      -0.086400
     14 C09          4.1810    -1.9590     0.6020 c5         1 Q9J      -0.081700
     15 C11          4.3720    -0.6250    -1.4380 c5         1 Q9J       0.134300
     16 O12          5.2560    -0.3140    -2.5200 oh         1 Q9J      -0.658000
     17 N14          1.7460    -0.9660     0.4500 na         1 Q9J       0.092800
     18 N15          0.3790    -1.2000     0.4050 nd         1 Q9J      -0.525800
     19 C16         -0.1350    -0.0120     0.1320 cc         1 Q9J       0.364500
     20 C18         -2.1770     1.3150     0.8120 ca         1 Q9J      -0.085000
     21 C19         -3.5720     1.4300     0.9510 ca         1 Q9J      -0.080000
     22 S21         -6.1320     0.3070     0.6270 ss         1 Q9J       0.025800
     23 N23         -4.7470    -1.7850    -0.3460 nd         1 Q9J      -0.519100
     24 C25         -2.4500    -0.9130    -0.1320 ca         1 Q9J      -0.026000
     25 H1           5.7320    -2.2800    -0.9190 hc         1 Q9J       0.057700
     26 H2           4.1420    -2.8280    -1.4400 hc         1 Q9J       0.057700
     27 H3           2.2910    -2.9850     0.3750 h1         1 Q9J       0.068700
     28 H4           2.5050    -2.1990     1.9330 h1         1 Q9J       0.068700
     29 H5          -6.8830    -1.8870    -0.2440 h5         1 Q9J       0.059800
     30 H6          -1.1920     2.0910    -1.1000 hn         1 Q9J       0.315000
     31 H7          -0.5400     3.6970    -1.3670 hn         1 Q9J       0.315000
     32 H8           3.1810     1.9710    -0.0920 hn         1 Q9J       0.524000
     33 H9           5.4100     1.0380    -0.3230 h1         1 Q9J       0.092700
     34 H10          5.9210    -0.7660     1.1810 hc         1 Q9J       0.067700
     35 H11          4.4550    -0.2360     1.9850 hc         1 Q9J       0.067700
     36 H12          4.6140    -2.7920     1.1710 hc         1 Q9J       0.069700
     37 H13          3.3350    -0.5780    -1.7990 h1         1 Q9J       0.052700
     38 H14          5.0560    -0.9480    -3.2430 ho         1 Q9J       0.447000
     39 H15         -1.5500     2.1130     1.2040 ha         1 Q9J       0.131000
     40 H16         -4.0120     2.3210     1.3960 ha         1 Q9J       0.128000
     41 H17         -2.0390    -1.8350    -0.5380 ha         1 Q9J       0.143000
     42 C02          0.7290     2.3860    -0.4700 c          1 Q9J       0.663700
@<TRIPOS>BOND
     1     1    14 1   
     2     1    15 1   
     3     1    25 1   
     4     1    26 1   
     5     2    14 1   
     6     2    17 1   
     7     2    27 1   
     8     2    28 1   
     9     3    19 1   
    10     3    20 ar  
    11     3    24 ar  
    12     4     6 ar  
    13     4    21 ar  
    14     4    22 1   
    15     5    22 1   
    16     5    23 2   
    17     5    29 1   
    18     6    23 1   
    19     6    24 ar  
    20     7    30 1   
    21     7    31 1   
    22     7    42 1   
    23     8    42 2   
    24     9    10 2   
    25     9    19 1   
    26     9    42 1   
    27    10    11 1   
    28    10    17 1   
    29    11    12 1   
    30    11    32 1   
    31    12    13 1   
    32    12    15 1   
    33    12    33 1   
    34    13    14 1   
    35    13    34 1   
    36    13    35 1   
    37    14    36 1   
    38    15    16 1   
    39    15    37 1   
    40    16    38 1   
    41    17    18 1   
    42    18    19 2   
    43    20    21 ar  
    44    20    39 1   
    45    21    40 1   
    46    24    41 1   
@<TRIPOS>SUBSTRUCTURE
     1 Q9J         1 TEMP              0 ****  ****    0 ROOT
