@<TRIPOS>MOLECULE
Q9J
   42    46     1     0     0
SMALL
abcg2


@<TRIPOS>ATOM
      1 C10          3.8650    -1.9090    -1.0310 c5         1 Q9J      -0.115400
      2 C13          2.7010    -1.8310     1.2370 c3         1 Q9J       0.092600
      3 C17         -1.5640     0.1440     0.4150 ca         1 Q9J      -0.134500
      4 C20         -4.3300     0.2320     0.5120 ca         1 Q9J      -0.180000
      5 C22         -5.7510    -1.4930    -0.4180 cc         1 Q9J       0.386100
      6 C24         -3.6840    -0.8530    -0.0990 ca         1 Q9J       0.078400
      7 N01         -0.4430     2.7370    -1.0780 nt         1 Q9J      -0.598000
      8 O03          1.7100     3.1620    -0.5970 o          1 Q9J      -0.664100
      9 C04          0.8610     1.0780     0.0740 cc         1 Q9J      -0.366600
     10 C05          2.0990     0.4580     0.3200 cd         1 Q9J       0.325000
     11 N06          3.3350     0.9990     0.2040 nu         1 Q9J      -0.934200
     12 C07          4.5370     0.2890    -0.1980 c5         1 Q9J       0.226500
     13 C08          4.9600    -0.7690     0.8100 c5         1 Q9J      -0.086400
     14 C09          4.0300    -1.9420     0.5040 c5         1 Q9J      -0.081700
     15 C11          4.3650    -0.5240    -1.4970 c5         1 Q9J       0.134300
     16 O12          5.6430    -0.5870    -2.0940 oh         1 Q9J      -0.658000
     17 N14          1.8210    -0.7910     0.7390 na         1 Q9J       0.092800
     18 N15          0.4910    -1.0190     0.8050 nd         1 Q9J      -0.525800
     19 C16         -0.0940     0.0850     0.4160 cc         1 Q9J       0.364500
     20 C18         -2.2320     1.2180     1.0290 ca         1 Q9J      -0.085000
     21 C19         -3.6100     1.2760     1.0830 ca         1 Q9J      -0.080000
     22 S21         -6.0400     0.0040     0.4130 ss         1 Q9J       0.025800
     23 N23         -4.5240    -1.8120    -0.6160 nd         1 Q9J      -0.519100
     24 C25         -2.2920    -0.8940    -0.1450 ca         1 Q9J      -0.026000
     25 H1           4.4570    -2.6980    -1.4980 hc         1 Q9J       0.057700
     26 H2           2.8300    -2.0840    -1.3310 hc         1 Q9J       0.057700
     27 H3           2.1410    -2.7590     1.1330 h1         1 Q9J       0.068700
     28 H4           2.8800    -1.6730     2.3050 h1         1 Q9J       0.068700
     29 H5          -6.5890    -2.0990    -0.7370 h5         1 Q9J       0.059800
     30 H6          -1.2020     2.0870    -1.1780 hn         1 Q9J       0.315000
     31 H7          -0.5280     3.6170    -1.5600 hn         1 Q9J       0.315000
     32 H8           3.2700     1.9470    -0.1440 hn         1 Q9J       0.524000
     33 H9           5.2940     1.0610    -0.3290 h1         1 Q9J       0.092700
     34 H10          5.9960    -1.0520     0.6120 hc         1 Q9J       0.067700
     35 H11          4.9020    -0.4230     1.8430 hc         1 Q9J       0.067700
     36 H12          4.4690    -2.8840     0.8380 hc         1 Q9J       0.069700
     37 H13          3.6470    -0.0390    -2.1710 h1         1 Q9J       0.052700
     38 H14          5.6020    -1.1970    -2.8370 ho         1 Q9J       0.447000
     39 H15         -1.6560     2.0130     1.4840 ha         1 Q9J       0.131000
     40 H16         -4.1080     2.1080     1.5630 ha         1 Q9J       0.128000
     41 H17         -1.7920    -1.7280    -0.6210 ha         1 Q9J       0.143000
     42 C02          0.7440     2.3940    -0.5460 c          1 Q9J       0.663700
@<TRIPOS>BOND
     1     1    14 1   
     2     1    15 1   
     3     1    25 1   
     4     1    26 1   
     5     2    14 1   
     6     2    17 1   
     7     2    27 1   
     8     2    28 1   
     9     3    19 1   
    10     3    20 ar  
    11     3    24 ar  
    12     4     6 ar  
    13     4    21 ar  
    14     4    22 1   
    15     5    22 1   
    16     5    23 2   
    17     5    29 1   
    18     6    23 1   
    19     6    24 ar  
    20     7    30 1   
    21     7    31 1   
    22     7    42 1   
    23     8    42 2   
    24     9    10 2   
    25     9    19 1   
    26     9    42 1   
    27    10    11 1   
    28    10    17 1   
    29    11    12 1   
    30    11    32 1   
    31    12    13 1   
    32    12    15 1   
    33    12    33 1   
    34    13    14 1   
    35    13    34 1   
    36    13    35 1   
    37    14    36 1   
    38    15    16 1   
    39    15    37 1   
    40    16    38 1   
    41    17    18 1   
    42    18    19 2   
    43    20    21 ar  
    44    20    39 1   
    45    21    40 1   
    46    24    41 1   
@<TRIPOS>SUBSTRUCTURE
     1 Q9J         1 TEMP              0 ****  ****    0 ROOT
