@<TRIPOS>MOLECULE
Q9L
   49    52     1     0     0
SMALL
No Charge or Current Charge


@<TRIPOS>ATOM
      1 C10        -20.4990    74.9050    17.7480 ca         1 Q9L      -0.167600
      2 C13        -20.3390    75.4980    16.3580 c          1 Q9L       0.718600
      3 C15        -16.8190    72.8410    17.0170 ca         1 Q9L      -0.009500
      4 C17        -15.4050    73.0420    19.0210 cp         1 Q9L      -0.004000
      5 C20        -14.1990    73.6010    19.7130 cp         1 Q9L      -0.027000
      6 C21        -14.2370    73.9420    21.0900 ca         1 Q9L      -0.096500
      7 C22        -13.1060    74.4670    21.7400 ca         1 Q9L      -0.116000
      8 C24        -11.8500    74.3290    19.6640 ca         1 Q9L      -0.116000
      9 N          -20.2580    72.6200    16.9430 nu         1 Q9L      -0.910100
     10 C          -12.9820    73.8060    19.0150 ca         1 Q9L      -0.096500
     11 C01        -20.5670    73.5260    24.2140 ca         1 Q9L      -0.109000
     12 C02        -21.2510    72.3200    24.4270 ca         1 Q9L       0.107000
     13 C03        -21.7940    71.6190    23.3390 ca         1 Q9L      -0.109000
     14 C04        -21.6520    72.1260    22.0350 ca         1 Q9L      -0.097500
     15 C05        -20.9660    73.3440    21.7930 cp         1 Q9L       0.000000
     16 C06        -20.4260    74.0330    22.9090 ca         1 Q9L      -0.097500
     17 C07        -20.8100    73.8830    20.4040 cp         1 Q9L      -0.049000
     18 C08        -20.8340    75.2720    20.1500 ca         1 Q9L      -0.136000
     19 C09        -20.6880    75.7740    18.8480 ca         1 Q9L      -0.069000
     20 C11        -20.4600    73.5090    17.9890 ca         1 Q9L       0.285000
     21 C12        -20.6290    73.0200    19.2990 ca         1 Q9L      -0.149000
     22 C14        -17.7000    71.9880    17.7090 ca         1 Q9L      -0.284500
     23 C16        -15.6860    73.3570    17.6680 ca         1 Q9L      -0.124500
     24 C18        -16.3080    72.1850    19.6980 ca         1 Q9L      -0.124500
     25 C19        -17.4420    71.6620    19.0540 ca         1 Q9L      -0.009500
     26 C23        -11.9120    74.6600    21.0270 ca         1 Q9L      -0.115000
     27 O01        -20.7130    76.6480    16.1760 o          1 Q9L      -0.685500
     28 O02        -19.8420    74.8150    15.4710 o          1 Q9L      -0.685500
     29 S          -19.1700    71.3590    16.8910 sy         1 Q9L       1.140600
     30 H1         -17.0120    73.1140    15.9800 ha         1 Q9L       0.143000
     31 H2         -15.1550    73.8140    21.6570 ha         1 Q9L       0.118000
     32 H3         -13.1570    74.7260    22.7950 ha         1 Q9L       0.107000
     33 H4         -10.9250    74.4760    19.1110 ha         1 Q9L       0.107000
     34 H5         -20.0320    73.1100    16.0770 hn         1 Q9L       0.582000
     35 H6         -12.9090    73.5440    17.9620 ha         1 Q9L       0.118000
     36 H7         -20.1430    74.0660    25.0570 ha         1 Q9L       0.120000
     37 H8         -22.3270    70.6860    23.5060 ha         1 Q9L       0.120000
     38 H9         -22.0920    71.5760    21.2070 ha         1 Q9L       0.125000
     39 H10        -19.8810    74.9620    22.7620 ha         1 Q9L       0.125000
     40 H11        -20.9840    75.9720    20.9670 ha         1 Q9L       0.098000
     41 H12        -20.7170    76.8520    18.6990 ha         1 Q9L       0.133000
     42 H13        -20.6070    71.9500    19.4700 ha         1 Q9L       0.130000
     43 H14        -15.0270    74.0250    17.1180 ha         1 Q9L       0.111500
     44 H15        -16.1230    71.9100    20.7330 ha         1 Q9L       0.111500
     45 H16        -18.1160    71.0090    19.6070 ha         1 Q9L       0.143000
     46 H17        -11.0370    75.0660    21.5300 ha         1 Q9L       0.104000
     47 Cl         -21.4270    71.6850    26.0570 cl         1 Q9L      -0.231000
     48 O          -18.9280    71.2410    15.4530 o          1 Q9L      -0.562500
     49 O03        -19.7970    70.2920    17.6750 o          1 Q9L      -0.562500
@<TRIPOS>BOND
     1     1     2 1   
     2     1    19 ar  
     3     1    20 ar  
     4     2    27 1   
     5     2    28 1   
     6     3    22 ar  
     7     3    23 ar  
     8     3    30 1   
     9     4     5 1   
    10     4    23 ar  
    11     4    24 ar  
    12     5     6 ar  
    13     5    10 ar  
    14     6     7 ar  
    15     6    31 1   
    16     7    26 ar  
    17     7    32 1   
    18     8    10 ar  
    19     8    26 ar  
    20     8    33 1   
    21     9    20 1   
    22     9    29 1   
    23     9    34 1   
    24    10    35 1   
    25    11    12 ar  
    26    11    16 ar  
    27    11    36 1   
    28    12    13 ar  
    29    12    47 1   
    30    13    14 ar  
    31    13    37 1   
    32    14    15 ar  
    33    14    38 1   
    34    15    16 ar  
    35    15    17 1   
    36    16    39 1   
    37    17    18 ar  
    38    17    21 ar  
    39    18    19 ar  
    40    18    40 1   
    41    19    41 1   
    42    20    21 ar  
    43    21    42 1   
    44    22    25 ar  
    45    22    29 1   
    46    23    43 1   
    47    24    25 ar  
    48    24    44 1   
    49    25    45 1   
    50    26    46 1   
    51    29    48 2   
    52    29    49 2   
@<TRIPOS>SUBSTRUCTURE
     1 Q9L         1 TEMP              0 ****  ****    0 ROOT
