@<TRIPOS>MOLECULE
Q9L
   49    52     1     0     0
SMALL
abcg2


@<TRIPOS>ATOM
      1 C10        -20.2090    74.8230    17.9100 ca         1 Q9L      -0.167600
      2 C13        -19.8820    75.4120    16.5440 c          1 Q9L       0.718600
      3 C15        -16.9540    72.9500    17.1610 ca         1 Q9L      -0.009500
      4 C17        -15.3400    73.0660    18.9610 cp         1 Q9L      -0.004000
      5 C20        -14.1310    73.6670    19.5580 cp         1 Q9L      -0.027000
      6 C21        -14.0500    73.8810    20.9350 ca         1 Q9L      -0.096500
      7 C22        -12.9170    74.4480    21.4990 ca         1 Q9L      -0.116000
      8 C24        -11.9130    74.6020    19.3250 ca         1 Q9L      -0.116000
      9 N          -20.1500    72.5720    17.0470 nu         1 Q9L      -0.910100
     10 C          -13.0470    74.0370    18.7600 ca         1 Q9L      -0.096500
     11 C01        -20.9590    73.4560    24.2340 ca         1 Q9L      -0.109000
     12 C02        -21.8040    72.3640    24.3570 ca         1 Q9L       0.107000
     13 C03        -22.3220    71.7350    23.2360 ca         1 Q9L      -0.109000
     14 C04        -21.9900    72.2140    21.9790 ca         1 Q9L      -0.097500
     15 C05        -21.1480    73.3150    21.8220 cp         1 Q9L       0.000000
     16 C06        -20.6370    73.9220    22.9700 ca         1 Q9L      -0.097500
     17 C07        -20.8160    73.8340    20.4810 cp         1 Q9L      -0.049000
     18 C08        -20.6990    75.2060    20.2550 ca         1 Q9L      -0.136000
     19 C09        -20.4090    75.6790    18.9890 ca         1 Q9L      -0.069000
     20 C11        -20.3280    73.4420    18.1400 ca         1 Q9L       0.285000
     21 C12        -20.6340    72.9630    19.4110 ca         1 Q9L      -0.149000
     22 C14        -17.6340    71.9500    17.8470 ca         1 Q9L      -0.284500
     23 C16        -15.8160    73.5010    17.7200 ca         1 Q9L      -0.124500
     24 C18        -16.0380    72.0580    19.6250 ca         1 Q9L      -0.124500
     25 C19        -17.1840    71.5020    19.0780 ca         1 Q9L      -0.009500
     26 C23        -11.8440    74.8110    20.6960 ca         1 Q9L      -0.115000
     27 O01        -19.7420    76.6350    16.4670 o          1 Q9L      -0.685500
     28 O02        -19.7810    74.5970    15.5810 o          1 Q9L      -0.685500
     29 S          -19.1210    71.2920    17.1400 sy         1 Q9L       1.140600
     30 H1         -17.3130    73.3200    16.2090 ha         1 Q9L       0.143000
     31 H2         -14.8870    73.6240    21.5730 ha         1 Q9L       0.118000
     32 H3         -12.8770    74.6140    22.5680 ha         1 Q9L       0.107000
     33 H4         -11.0790    74.8740    18.6910 ha         1 Q9L       0.107000
     34 H5         -19.9810    73.1900    16.1960 hn         1 Q9L       0.582000
     35 H6         -13.0770    73.8640    17.6920 ha         1 Q9L       0.118000
     36 H7         -20.5490    73.9360    25.1120 ha         1 Q9L       0.120000
     37 H8         -22.9860    70.8870    23.3370 ha         1 Q9L       0.120000
     38 H9         -22.4180    71.7290    21.1110 ha         1 Q9L       0.125000
     39 H10        -19.9620    74.7640    22.8840 ha         1 Q9L       0.125000
     40 H11        -20.8640    75.9080    21.0620 ha         1 Q9L       0.098000
     41 H12        -20.3320    76.7460    18.8260 ha         1 Q9L       0.133000
     42 H13        -20.7260    71.8970    19.5690 ha         1 Q9L       0.130000
     43 H14        -15.3080    74.2980    17.1930 ha         1 Q9L       0.111500
     44 H15        -15.6820    71.6860    20.5770 ha         1 Q9L       0.111500
     45 H16        -17.7120    70.7250    19.6130 ha         1 Q9L       0.143000
     46 H17        -10.9590    75.2530    21.1360 ha         1 Q9L       0.104000
     47 CL         -22.2210    71.7810    25.9340 cl         1 Q9L      -0.231000
     48 O          -18.8650    70.9050    15.7610 o          1 Q9L      -0.562500
     49 O03        -19.6440    70.2940    18.0610 o          1 Q9L      -0.562500
@<TRIPOS>BOND
     1     1     2 1   
     2     1    19 ar  
     3     1    20 ar  
     4     2    27 1   
     5     2    28 1   
     6     3    22 ar  
     7     3    23 ar  
     8     3    30 1   
     9     4     5 1   
    10     4    23 ar  
    11     4    24 ar  
    12     5     6 ar  
    13     5    10 ar  
    14     6     7 ar  
    15     6    31 1   
    16     7    26 ar  
    17     7    32 1   
    18     8    10 ar  
    19     8    26 ar  
    20     8    33 1   
    21     9    20 1   
    22     9    29 1   
    23     9    34 1   
    24    10    35 1   
    25    11    12 ar  
    26    11    16 ar  
    27    11    36 1   
    28    12    13 ar  
    29    12    47 1   
    30    13    14 ar  
    31    13    37 1   
    32    14    15 ar  
    33    14    38 1   
    34    15    16 ar  
    35    15    17 1   
    36    16    39 1   
    37    17    18 ar  
    38    17    21 ar  
    39    18    19 ar  
    40    18    40 1   
    41    19    41 1   
    42    20    21 ar  
    43    21    42 1   
    44    22    25 ar  
    45    22    29 1   
    46    23    43 1   
    47    24    25 ar  
    48    24    44 1   
    49    25    45 1   
    50    26    46 1   
    51    29    48 2   
    52    29    49 2   
@<TRIPOS>SUBSTRUCTURE
     1 Q9L         1 TEMP              0 ****  ****    0 ROOT
