@<TRIPOS>MOLECULE
Q9N
   81    86     1     0     0
SMALL
abcg2


@<TRIPOS>ATOM
      1 O3          18.8840     6.9260    15.5950 oh         1 Q9N      -0.704000
      2 C4          16.2710     7.6320    13.1110 c3         1 Q9N       0.090000
      3 C5          17.7090     7.4950    13.5980 c5         1 Q9N       0.149300
      4 O4          14.1590     9.8820    11.5830 os         1 Q9N      -0.431000
      5 C6          19.1870     9.2580    13.8530 c5         1 Q9N       0.317300
      6 N1          15.4310     6.5730    13.6120 ns         1 Q9N      -0.509900
      7 C7          18.3120     9.2310    15.1010 c5         1 Q9N       0.077300
      8 C8          17.8730     7.7630    15.0940 c5         1 Q9N       0.108300
      9 N2          19.4350    10.5680    13.3050 na         1 Q9N      -0.263300
     10 C9          18.5570    11.4830    12.7600 cc         1 Q9N       0.473700
     11 O5          16.3320     9.0410     9.8750 os         1 Q9N      -0.427000
     12 C10         20.4630    12.4000    12.6820 ca         1 Q9N      -0.100600
     13 O6          17.5760    10.5990     7.4980 oh         1 Q9N      -0.682000
     14 C11         20.6670    11.1540    13.2540 ca         1 Q9N       0.148500
     15 C12         22.8260    11.5020    13.4540 ca         1 Q9N       0.186900
     16 N3          19.1490    12.5850    12.3780 nd         1 Q9N      -0.532100
     17 C13         21.6030    13.2140    12.5240 ca         1 Q9N       0.453900
     18 O7          14.9980    11.1190     7.2890 oh         1 Q9N      -0.676000
     19 C14         17.1660    11.2690    12.6130 cg         1 Q9N      -0.100200
     20 C15         15.9790    11.1850    12.4290 c1         1 Q9N      -0.132100
     21 N4          21.8310    10.6550    13.6570 nb         1 Q9N      -0.214000
     22 N           16.9500     2.6790    16.2010 n8         1 Q9N      -0.990200
     23 O           16.0320     5.0330    12.0760 o          1 Q9N      -0.589100
     24 C1          15.3320     3.2500    14.4590 c3         1 Q9N      -0.071400
     25 C16         14.5350    11.0740    12.2210 c3         1 Q9N       0.241700
     26 C17         14.1160     9.9190    10.1750 c3         1 Q9N       0.158600
     27 C18         15.4550    10.0830     9.4830 c5         1 Q9N       0.092300
     28 C19         17.1320     8.6130     8.8040 c5         1 Q9N       0.273300
     29 C2          14.5040     4.3470    13.7900 c3         1 Q9N      -0.158400
     30 C20         16.7490     9.4730     7.5840 c5         1 Q9N       0.138300
     31 C21         15.3450     9.9470     7.9590 c5         1 Q9N       0.145300
     32 C22         15.9610     6.5130     7.9710 cc         1 Q9N       0.392700
     33 C23         17.1880     5.0240     8.8270 ca         1 Q9N      -0.092600
     34 C24         17.7590     6.2330     9.1820 ca         1 Q9N       0.146500
     35 C25         19.3590     5.2540    10.3190 ca         1 Q9N       0.190900
     36 C26         17.8260     3.8670     9.3110 ca         1 Q9N       0.463900
     37 C3          15.3870     5.3420    13.0700 c          1 Q9N       0.596100
     38 N10         18.9240     4.0250    10.0580 nb         1 Q9N      -0.298000
     39 N11         17.3870     2.6350     9.0510 nv         1 Q9N      -1.066900
     40 N5          22.7800    12.7230    12.9270 nb         1 Q9N      -0.305000
     41 N6          21.5470    14.4350    11.9960 nv         1 Q9N      -1.063900
     42 N7          16.9640     7.1910     8.6140 na         1 Q9N      -0.305300
     43 N8          16.0630     5.2220     8.0680 nd         1 Q9N      -0.546100
     44 N9          18.8460     6.4080     9.9280 nb         1 Q9N      -0.215000
     45 O1          18.5210     8.4620    12.9190 os         1 Q9N      -0.426000
     46 O2          19.0580     9.6230    16.2150 oh         1 Q9N      -0.694000
     47 H1          19.1720     7.2790    16.4440 ho         1 Q9N       0.517000
     48 H2          16.2520     7.6390    12.0230 h1         1 Q9N       0.078700
     49 H3          15.8470     8.5800    13.4410 h1         1 Q9N       0.078700
     50 H4          18.0780     6.4940    13.3560 h1         1 Q9N       0.106700
     51 H5          20.1780     8.8580    14.0960 h2         1 Q9N       0.118700
     52 H6          14.8900     6.7530    14.4410 hn         1 Q9N       0.305500
     53 H7          17.4320     9.8690    14.9530 h1         1 Q9N       0.057700
     54 H8          16.9310     7.6190    15.6390 h1         1 Q9N       0.043700
     55 H10         23.8110    11.1630    13.7570 h5         1 Q9N       0.047100
     56 H11         14.0410    11.2130     7.3140 ho         1 Q9N       0.504000
     57 H12         17.6060     3.0480    16.8780 hn         1 Q9N       0.391000
     58 H13         16.2800     2.1410    16.7380 hn         1 Q9N       0.391000
     59 H15         17.0230     4.4240    15.0900 h1         1 Q9N       0.027700
     60 H16         15.6870     4.4160    16.2260 h1         1 Q9N       0.027700
     61 H17         14.6430     2.5250    14.9020 hc         1 Q9N       0.058200
     62 H18         15.9120     2.7090    13.7070 hc         1 Q9N       0.058200
     63 H19         14.1850    11.9600    11.6760 h1         1 Q9N       0.062700
     64 H20         14.0420    11.0910    13.1970 h1         1 Q9N       0.062700
     65 H21         13.4550    10.7260     9.8290 h1         1 Q9N       0.050700
     66 H22         13.6680     8.9700     9.8700 h1         1 Q9N       0.050700
     67 H23         15.8970    11.0590     9.7200 h1         1 Q9N       0.087700
     68 H24         18.1890     8.7520     9.0470 h2         1 Q9N       0.117700
     69 H25         13.8760     4.8410    14.5350 hc         1 Q9N       0.056200
     70 H26         13.8330     3.8990    13.0550 hc         1 Q9N       0.056200
     71 H27         16.7610     8.8890     6.6570 h1         1 Q9N       0.065700
     72 H28         14.6370     9.1380     7.7300 h1         1 Q9N       0.036700
     73 H29         15.1780     7.0250     7.4330 h5         1 Q9N       0.053800
     74 H30         20.2520     5.3120    10.9330 h5         1 Q9N       0.046100
     75 H31         17.8510     1.8370     9.4500 hn         1 Q9N       0.504000
     76 H32         16.5420     2.4830     8.5280 hn         1 Q9N       0.504000
     77 H33         22.3840    14.9850    11.8990 hn         1 Q9N       0.508000
     78 H34         20.6760    14.8310    11.6890 hn         1 Q9N       0.508000
     79 H35         18.4570     9.9240    16.9040 ho         1 Q9N       0.510000
     80 H9          18.4450    10.3200     7.1930 ho         1 Q9N       0.512000
     81 C           16.2640     3.7780    15.5400 c3         1 Q9N       0.145800
@<TRIPOS>BOND
     1     1     8 1   
     2     1    47 1   
     3     2     3 1   
     4     2     6 1   
     5     2    48 1   
     6     2    49 1   
     7     3     8 1   
     8     3    45 1   
     9     3    50 1   
    10     4    25 1   
    11     4    26 1   
    12     5     7 1   
    13     5     9 1   
    14     5    45 1   
    15     5    51 1   
    16     6    37 1   
    17     6    52 1   
    18     7     8 1   
    19     7    46 1   
    20     7    53 1   
    21     8    54 1   
    22     9    10 1   
    23     9    14 1   
    24    10    16 2   
    25    10    19 1   
    26    11    27 1   
    27    11    28 1   
    28    12    14 ar  
    29    12    16 1   
    30    12    17 ar  
    31    13    30 1   
    32    13    80 1   
    33    14    21 ar  
    34    15    21 ar  
    35    15    40 ar  
    36    15    55 1   
    37    17    40 ar  
    38    17    41 1   
    39    18    31 1   
    40    18    56 1   
    41    19    20 3   
    42    20    25 1   
    43    22    57 1   
    44    22    58 1   
    45    22    81 1   
    46    23    37 2   
    47    24    29 1   
    48    24    61 1   
    49    24    62 1   
    50    24    81 1   
    51    25    63 1   
    52    25    64 1   
    53    26    27 1   
    54    26    65 1   
    55    26    66 1   
    56    27    31 1   
    57    27    67 1   
    58    28    30 1   
    59    28    42 1   
    60    28    68 1   
    61    29    37 1   
    62    29    69 1   
    63    29    70 1   
    64    30    31 1   
    65    30    71 1   
    66    31    72 1   
    67    32    42 1   
    68    32    43 2   
    69    32    73 1   
    70    33    34 ar  
    71    33    36 ar  
    72    33    43 1   
    73    34    42 1   
    74    34    44 ar  
    75    35    38 ar  
    76    35    44 ar  
    77    35    74 1   
    78    36    38 ar  
    79    36    39 1   
    80    39    75 1   
    81    39    76 1   
    82    41    77 1   
    83    41    78 1   
    84    46    79 1   
    85    59    81 1   
    86    60    81 1   
@<TRIPOS>SUBSTRUCTURE
     1 Q9N         1 TEMP              0 ****  ****    0 ROOT
