@<TRIPOS>MOLECULE
Q9N
   81    86     1     0     0
SMALL
No Charge or Current Charge


@<TRIPOS>ATOM
      1 O3          19.3010     5.6190    15.5350 oh         1 Q9N      -0.704000
      2 C4          17.5160     6.6130    12.1950 c3         1 Q9N       0.090000
      3 C5          18.6450     6.1870    13.1820 c5         1 Q9N       0.149300
      4 O4          14.2970     8.6670    12.6520 os         1 Q9N      -0.431000
      5 C6          19.6260     8.1730    13.9960 c5         1 Q9N       0.317300
      6 N1          16.1260     6.3410    12.5830 ns         1 Q9N      -0.509900
      7 C7          18.4010     7.8060    14.9230 c5         1 Q9N       0.077300
      8 C8          18.3270     6.2720    14.7120 c5         1 Q9N       0.108300
      9 N2          19.7320     9.4820    13.3240 na         1 Q9N      -0.263300
     10 C9          18.7200    10.3740    12.9100 cc         1 Q9N       0.473700
     11 O5          15.9120     8.7510    10.3670 os         1 Q9N      -0.427000
     12 C10         20.6030    11.2440    12.3560 ca         1 Q9N      -0.100600
     13 O6          15.4980    10.8970     7.8640 oh         1 Q9N      -0.682000
     14 C11         20.9200    10.0580    12.9660 ca         1 Q9N       0.148500
     15 C12         23.1440    10.4820    12.6210 ca         1 Q9N       0.186900
     16 N3          19.2270    11.4660    12.3120 nd         1 Q9N      -0.532100
     17 C13         21.6550    12.0490    11.8730 ca         1 Q9N       0.453900
     18 O7          13.0920     9.8070     8.3360 oh         1 Q9N      -0.676000
     19 C14         17.3110    10.2370    13.0700 cg         1 Q9N      -0.100200
     20 C15         16.1050    10.1170    13.1770 c1         1 Q9N      -0.132100
     21 N4          22.1970     9.6500    13.1160 nb         1 Q9N      -0.214000
     22 N           13.7880     6.1670    16.8820 n8         1 Q9N      -0.990200
     23 O           16.3110     4.1010    12.9370 o          1 Q9N      -0.589100
     24 C1          13.7790     4.9990    14.6800 c3         1 Q9N      -0.071400
     25 C16         14.6550     9.9110    13.2930 c3         1 Q9N       0.241700
     26 C17         13.6470     8.7620    11.3590 c3         1 Q9N       0.158600
     27 C18         14.6050     9.3440    10.2800 c5         1 Q9N       0.092300
     28 C19         16.6240     9.0600     9.1510 c5         1 Q9N       0.273300
     29 C2          14.1080     5.0730    13.1690 c3         1 Q9N      -0.158400
     30 C20         15.5340     9.4790     8.0900 c5         1 Q9N       0.138300
     31 C21         14.2170     9.0450     8.8070 c5         1 Q9N       0.145300
     32 C22         17.0920     6.7640     8.1510 cc         1 Q9N       0.392700
     33 C23         19.1610     6.5430     8.6970 ca         1 Q9N      -0.092600
     34 C24         18.7930     7.7740     9.1750 ca         1 Q9N       0.146500
     35 C25         20.9030     8.0890     9.9950 ca         1 Q9N       0.190900
     36 C26         20.4870     6.1160     8.9130 ca         1 Q9N       0.463900
     37 C3          15.6160     5.1050    12.9020 c          1 Q9N       0.596100
     38 N10         21.3680     6.8900     9.5670 nb         1 Q9N      -0.298000
     39 N11         20.9510     4.9120     8.4820 nv         1 Q9N      -1.066900
     40 N5          22.9350    11.6680    12.0000 nb         1 Q9N      -0.305000
     41 N6          21.4430    13.2390    11.2530 nv         1 Q9N      -1.063900
     42 N7          17.4780     7.9180     8.8400 na         1 Q9N      -0.305300
     43 N8          18.1080     5.8880     8.0490 nd         1 Q9N      -0.546100
     44 N9          19.6510     8.5790     9.8320 nb         1 Q9N      -0.215000
     45 O1          19.7510     7.1050    13.0210 os         1 Q9N      -0.426000
     46 O2          18.6000     8.1240    16.3170 oh         1 Q9N      -0.694000
     47 H1          19.3790     6.2260    16.3130 ho         1 Q9N       0.517000
     48 H2          17.7030     6.1160    11.2340 h1         1 Q9N       0.078700
     49 H3          17.6020     7.6890    12.0090 h1         1 Q9N       0.078700
     50 H4          18.9660     5.1720    12.9110 h1         1 Q9N       0.106700
     51 H5          20.5210     8.1300    14.6310 h2         1 Q9N       0.118700
     52 H6          15.4660     7.1150    12.5560 hn         1 Q9N       0.305500
     53 H7          17.4580     8.2330    14.5740 h1         1 Q9N       0.057700
     54 H8          17.3270     5.8840    14.9460 h1         1 Q9N       0.043700
     55 H10         24.1790    10.1640    12.7320 h5         1 Q9N       0.047100
     56 H11         12.2860     9.2500     8.4530 ho         1 Q9N       0.504000
     57 H12         13.9860     7.0590    17.3510 hn         1 Q9N       0.391000
     58 H13         12.7700     6.0690    16.9720 hn         1 Q9N       0.391000
     59 H15         15.2100     6.4920    15.3730 h1         1 Q9N       0.027700
     60 H16         13.5870     7.1390    15.0290 h1         1 Q9N       0.027700
     61 H17         12.7060     4.8020    14.7940 hc         1 Q9N       0.058200
     62 H18         14.3070     4.1450    15.1250 hc         1 Q9N       0.058200
     63 H19         14.1210    10.7660    12.8560 h1         1 Q9N       0.062700
     64 H20         14.3990     9.8680    14.3590 h1         1 Q9N       0.062700
     65 H21         12.7450     9.3850    11.4190 h1         1 Q9N       0.050700
     66 H22         13.3330     7.7610    11.0360 h1         1 Q9N       0.050700
     67 H23         14.7010    10.4260    10.4470 h1         1 Q9N       0.087700
     68 H24         17.2990     9.9080     9.3240 h2         1 Q9N       0.117700
     69 H25         13.6310     5.9720    12.7620 hc         1 Q9N       0.056200
     70 H26         13.6890     4.1820    12.6860 hc         1 Q9N       0.056200
     71 H27         15.6640     8.9460     7.1380 h1         1 Q9N       0.065700
     72 H28         14.0410     7.9690     8.6640 h1         1 Q9N       0.036700
     73 H29         16.0860     6.6200     7.7740 h5         1 Q9N       0.053800
     74 H30         21.6130     8.7280    10.5170 h5         1 Q9N       0.046100
     75 H31         21.7970     4.5470     8.9100 hn         1 Q9N       0.504000
     76 H32         20.2580     4.2320     8.1810 hn         1 Q9N       0.504000
     77 H33         22.1930    13.6200    10.6820 hn         1 Q9N       0.508000
     78 H34         20.4930    13.4420    10.9540 hn         1 Q9N       0.508000
     79 H35         18.3620     9.0730    16.4480 ho         1 Q9N       0.510000
     80 H9          14.5270    11.0930     7.8340 ho         1 Q9N       0.512000
     81 C           14.1350     6.2870    15.4550 c3         1 Q9N       0.145800
@<TRIPOS>BOND
     1     1     8 1   
     2     1    47 1   
     3     2     3 1   
     4     2     6 1   
     5     2    48 1   
     6     2    49 1   
     7     3     8 1   
     8     3    45 1   
     9     3    50 1   
    10     4    25 1   
    11     4    26 1   
    12     5     7 1   
    13     5     9 1   
    14     5    45 1   
    15     5    51 1   
    16     6    37 1   
    17     6    52 1   
    18     7     8 1   
    19     7    46 1   
    20     7    53 1   
    21     8    54 1   
    22     9    10 1   
    23     9    14 1   
    24    10    16 2   
    25    10    19 1   
    26    11    27 1   
    27    11    28 1   
    28    12    14 ar  
    29    12    16 1   
    30    12    17 ar  
    31    13    30 1   
    32    13    80 1   
    33    14    21 ar  
    34    15    21 ar  
    35    15    40 ar  
    36    15    55 1   
    37    17    40 ar  
    38    17    41 1   
    39    18    31 1   
    40    18    56 1   
    41    19    20 3   
    42    20    25 1   
    43    22    57 1   
    44    22    58 1   
    45    22    81 1   
    46    23    37 2   
    47    24    29 1   
    48    24    61 1   
    49    24    62 1   
    50    24    81 1   
    51    25    63 1   
    52    25    64 1   
    53    26    27 1   
    54    26    65 1   
    55    26    66 1   
    56    27    31 1   
    57    27    67 1   
    58    28    30 1   
    59    28    42 1   
    60    28    68 1   
    61    29    37 1   
    62    29    69 1   
    63    29    70 1   
    64    30    31 1   
    65    30    71 1   
    66    31    72 1   
    67    32    42 1   
    68    32    43 2   
    69    32    73 1   
    70    33    34 ar  
    71    33    36 ar  
    72    33    43 1   
    73    34    42 1   
    74    34    44 ar  
    75    35    38 ar  
    76    35    44 ar  
    77    35    74 1   
    78    36    38 ar  
    79    36    39 1   
    80    39    75 1   
    81    39    76 1   
    82    41    77 1   
    83    41    78 1   
    84    46    79 1   
    85    59    81 1   
    86    60    81 1   
@<TRIPOS>SUBSTRUCTURE
     1 Q9N         1 TEMP              0 ****  ****    0 ROOT
