@<TRIPOS>MOLECULE
Q9O
   36    37     1     0     0
SMALL
No Charge or Current Charge


@<TRIPOS>ATOM
      1 N1           0.0160     6.8370    29.1660 n3         1 Q9O      -0.718600
      2 C4          -0.9180     7.0220    26.8240 ca         1 Q9O      -0.067300
      3 C5          -1.3510     5.7280    26.4700 ca         1 Q9O      -0.086000
      4 C6          -1.2770     5.2840    25.1400 ca         1 Q9O      -0.114000
      5 C7          -0.7620     6.1310    24.1470 ca         1 Q9O      -0.101000
      6 C8          -0.3240     7.4210    24.4850 ca         1 Q9O      -0.111000
      7 C10         -0.6080    10.4770    24.8730 ca         1 Q9O      -0.291000
      8 C13         -1.7460    12.0380    22.8300 ca         1 Q9O       0.204100
      9 C15          0.1950    11.3580    24.1250 ca         1 Q9O       0.024000
     10 C1           1.3970     7.1970    28.7690 c3         1 Q9O       0.150100
     11 C11         -1.9850    10.3900    24.5900 ca         1 Q9O       0.229100
     12 C12         -2.5500    11.1690    23.5740 ca         1 Q9O      -0.210000
     13 C14         -0.3750    12.1340    23.1020 ca         1 Q9O      -0.264000
     14 C2          -0.2380     7.0870    30.6020 c3         1 Q9O       0.150100
     15 C3          -1.0220     7.4460    28.2950 c3         1 Q9O       0.207100
     16 C9          -0.4040     7.8770    25.8160 ca         1 Q9O      -0.105000
     17 O1          -2.2990    12.7910    21.8420 oh         1 Q9O      -0.525100
     18 O2          -2.7770     9.5460    25.2970 oh         1 Q9O      -0.523100
     19 S1           0.1660     9.5380    26.1970 ss         1 Q9O       0.027000
     20 H2          -1.7430     5.0610    27.2360 ha         1 Q9O       0.134000
     21 H3          -1.6140     4.2830    24.8800 ha         1 Q9O       0.115000
     22 H4          -0.6980     5.7870    23.1170 ha         1 Q9O       0.113000
     23 H5           0.0810     8.0670    23.7090 ha         1 Q9O       0.123000
     24 H6           1.2600    11.4420    24.3380 ha         1 Q9O       0.126000
     25 H7           2.1290     6.6930    29.4140 h1         1 Q9O       0.032533
     26 H8           1.6030     6.8940    27.7340 h1         1 Q9O       0.032533
     27 H9           1.5580     8.2810    28.8500 h1         1 Q9O       0.032533
     28 H10         -3.6120    11.0960    23.3610 ha         1 Q9O       0.147000
     29 H11          0.2570    12.8090    22.5300 ha         1 Q9O       0.120000
     30 H12          0.4970     6.5580    31.2240 h1         1 Q9O       0.032533
     31 H13         -0.1740     8.1590    30.8300 h1         1 Q9O       0.032533
     32 H14         -1.2370     6.7330    30.8880 h1         1 Q9O       0.032533
     33 H15         -0.9960     8.5390    28.3850 h1         1 Q9O       0.046700
     34 H16         -2.0160     7.1410    28.6510 h1         1 Q9O       0.046700
     35 H17         -1.5870    13.3310    21.4390 ho         1 Q9O       0.471000
     36 H18         -2.1710     8.9280    25.7540 ho         1 Q9O       0.489000
@<TRIPOS>BOND
     1     1    10 1   
     2     1    14 1   
     3     1    15 1   
     4     2     3 ar  
     5     2    15 1   
     6     2    16 ar  
     7     3     4 ar  
     8     3    20 1   
     9     4     5 ar  
    10     4    21 1   
    11     5     6 ar  
    12     5    22 1   
    13     6    16 ar  
    14     6    23 1   
    15     7     9 ar  
    16     7    11 ar  
    17     7    19 1   
    18     8    12 ar  
    19     8    13 ar  
    20     8    17 1   
    21     9    13 ar  
    22     9    24 1   
    23    10    25 1   
    24    10    26 1   
    25    10    27 1   
    26    11    12 ar  
    27    11    18 1   
    28    12    28 1   
    29    13    29 1   
    30    14    30 1   
    31    14    31 1   
    32    14    32 1   
    33    15    33 1   
    34    15    34 1   
    35    16    19 1   
    36    17    35 1   
    37    18    36 1   
@<TRIPOS>SUBSTRUCTURE
     1 Q9O         1 TEMP              0 ****  ****    0 ROOT
