@<TRIPOS>MOLECULE
Q9O
   36    37     1     0     0
SMALL
abcg2


@<TRIPOS>ATOM
      1 N1           0.0500     6.5940    29.2340 n3         1 Q9O      -0.718600
      2 C4          -0.5900     7.1600    26.9110 ca         1 Q9O      -0.067300
      3 C5          -0.5330     5.8140    26.5640 ca         1 Q9O      -0.086000
      4 C6          -0.6350     5.4000    25.2440 ca         1 Q9O      -0.114000
      5 C7          -0.8030     6.3430    24.2420 ca         1 Q9O      -0.101000
      6 C8          -0.8750     7.6900    24.5630 ca         1 Q9O      -0.111000
      7 C10         -1.1840    10.6520    24.8430 ca         1 Q9O      -0.291000
      8 C13         -1.6780    12.0420    22.4800 ca         1 Q9O       0.204100
      9 C15         -0.1340    11.1580    24.0830 ca         1 Q9O       0.024000
     10 C1           1.4870     6.4910    29.0830 c3         1 Q9O       0.150100
     11 C11         -2.5030    10.8580    24.4090 ca         1 Q9O       0.229100
     12 C12         -2.7420    11.5510    23.2280 ca         1 Q9O      -0.210000
     13 C14         -0.3620    11.8470    22.9090 ca         1 Q9O      -0.264000
     14 C2          -0.3100     6.8370    30.6150 c3         1 Q9O       0.150100
     15 C3          -0.5110     7.5950    28.3550 c3         1 Q9O       0.207100
     16 C9          -0.7740     8.0980    25.8880 ca         1 Q9O      -0.105000
     17 O1          -1.9750    12.7010    21.3500 oh         1 Q9O      -0.525100
     18 O2          -3.5610    10.4030    25.0880 oh         1 Q9O      -0.523100
     19 S1          -0.8860     9.8160    26.3610 ss         1 Q9O       0.027000
     20 H2          -0.4050     5.0840    27.3540 ha         1 Q9O       0.134000
     21 H3          -0.5840     4.3470    25.0020 ha         1 Q9O       0.115000
     22 H4          -0.8820     6.0370    23.2070 ha         1 Q9O       0.113000
     23 H5          -1.0100     8.4190    23.7750 ha         1 Q9O       0.123000
     24 H6           0.8830    11.0010    24.4200 ha         1 Q9O       0.126000
     25 H7           1.8710     5.6860    29.7100 h1         1 Q9O       0.032533
     26 H8           1.7510     6.2580    28.0510 h1         1 Q9O       0.032533
     27 H9           2.0100     7.4180    29.3640 h1         1 Q9O       0.032533
     28 H10         -3.7600    11.7090    22.8940 ha         1 Q9O       0.147000
     29 H11          0.4700    12.2310    22.3310 ha         1 Q9O       0.120000
     30 H12          0.0820     6.0370    31.2440 h1         1 Q9O       0.032533
     31 H13          0.0780     7.7890    31.0080 h1         1 Q9O       0.032533
     32 H14         -1.3950     6.8470    30.7250 h1         1 Q9O       0.032533
     33 H15          0.0490     8.5440    28.4280 h1         1 Q9O       0.046700
     34 H16         -1.5260     7.8250    28.6960 h1         1 Q9O       0.046700
     35 H17         -1.1720    13.0030    20.9100 ho         1 Q9O       0.471000
     36 H18         -3.2640     9.9880    25.9130 ho         1 Q9O       0.489000
@<TRIPOS>BOND
     1     1    10 1   
     2     1    14 1   
     3     1    15 1   
     4     2     3 ar  
     5     2    15 1   
     6     2    16 ar  
     7     3     4 ar  
     8     3    20 1   
     9     4     5 ar  
    10     4    21 1   
    11     5     6 ar  
    12     5    22 1   
    13     6    16 ar  
    14     6    23 1   
    15     7     9 ar  
    16     7    11 ar  
    17     7    19 1   
    18     8    12 ar  
    19     8    13 ar  
    20     8    17 1   
    21     9    13 ar  
    22     9    24 1   
    23    10    25 1   
    24    10    26 1   
    25    10    27 1   
    26    11    12 ar  
    27    11    18 1   
    28    12    28 1   
    29    13    29 1   
    30    14    30 1   
    31    14    31 1   
    32    14    32 1   
    33    15    33 1   
    34    15    34 1   
    35    16    19 1   
    36    17    35 1   
    37    18    36 1   
@<TRIPOS>SUBSTRUCTURE
     1 Q9O         1 TEMP              0 ****  ****    0 ROOT
