@<TRIPOS>MOLECULE
Q9P
   27    29     1     0     0
SMALL
bcc


@<TRIPOS>ATOM
      1 N3           1.8080    -1.2130    -0.9120 nc         1 Q9P      -0.652000
      2 C4           2.6750    -0.2350    -0.6740 cc         1 Q9P       0.453500
      3 C6           0.2820    -0.1360     0.6440 cd         1 Q9P      -0.293600
      4 C7           1.2070     0.8630     0.8620 cc         1 Q9P       0.279800
      5 C10          4.2640     1.1130    -0.5580 cd         1 Q9P       0.568200
      6 C13         -2.2000     0.2310     0.4210 ca         1 Q9P      -0.082300
      7 C15         -4.4450    -0.1790    -0.3740 ca         1 Q9P      -0.125000
      8 C17         -3.2040     1.6930    -1.2200 ca         1 Q9P      -0.125000
      9 O11          1.0100     1.8770     1.6630 oh         1 Q9P      -0.460100
     10 N8           2.3790     0.7800     0.1960 na         1 Q9P      -0.041800
     11 N9           3.3960     1.6500     0.2740 nc         1 Q9P      -0.637100
     12 N5           3.8850    -0.0260    -1.1600 nd         1 Q9P      -0.375300
     13 C2           0.6780    -1.1360    -0.2690 cd         1 Q9P       0.587300
     14 CL1         -0.4400    -2.4110    -0.5840 cl         1 Q9P      -0.121000
     15 C12         -1.0520    -0.1330     1.3330 c3         1 Q9P       0.042200
     16 C18         -2.1300     1.3440    -0.4130 ca         1 Q9P      -0.120500
     17 C16         -4.3670     0.9320    -1.2030 ca         1 Q9P      -0.125000
     18 C14         -3.3660    -0.5260     0.4280 ca         1 Q9P      -0.120500
     19 H2           5.2230     1.5770    -0.7330 h5         1 Q9P       0.078800
     20 H3          -5.3450    -0.7810    -0.3550 ha         1 Q9P       0.131500
     21 H4          -3.1330     2.5610    -1.8620 ha         1 Q9P       0.131500
     22 H5          -1.2350    -1.1140     1.7750 hc         1 Q9P       0.067200
     23 H6          -1.0270     0.5650     2.1720 hc         1 Q9P       0.067200
     24 H7          -1.2310     1.9500    -0.4380 ha         1 Q9P       0.128000
     25 H8          -5.2040     1.2030    -1.8330 ha         1 Q9P       0.132000
     26 H9          -3.4300    -1.3990     1.0670 ha         1 Q9P       0.128000
     27 H1           1.7810     2.4670     1.6920 ho         1 Q9P       0.485000
@<TRIPOS>BOND
     1     1     2 1   
     2     1    13 2   
     3     2    10 1   
     4     2    12 2   
     5     3     4 2   
     6     3    13 1   
     7     3    15 1   
     8     4     9 1   
     9     4    10 1   
    10     5    11 2   
    11     5    12 1   
    12     5    19 1   
    13     6    15 1   
    14     6    16 ar  
    15     6    18 ar  
    16     7    17 ar  
    17     7    18 ar  
    18     7    20 1   
    19     8    16 ar  
    20     8    17 ar  
    21     8    21 1   
    22     9    27 1   
    23    10    11 1   
    24    13    14 1   
    25    15    22 1   
    26    15    23 1   
    27    16    24 1   
    28    17    25 1   
    29    18    26 1   
@<TRIPOS>SUBSTRUCTURE
     1 Q9P         1 TEMP              0 ****  ****    0 ROOT
