@<TRIPOS>MOLECULE
Q9P
   27    29     1     0     0
SMALL
No Charge or Current Charge


@<TRIPOS>ATOM
      1 N3           1.8000    -1.3520    -0.8340 nc         1 Q9P      -0.652000
      2 C4           2.6340    -0.2990    -0.6230 cc         1 Q9P       0.453500
      3 C6           0.2880    -0.1250     0.6930 cd         1 Q9P      -0.228300
      4 C7           1.2020     0.9120     0.8530 cc         1 Q9P       0.229100
      5 C10          4.2650     1.0860    -0.6220 cd         1 Q9P       0.568200
      6 C13         -2.2160     0.2660     0.4680 ca         1 Q9P      -0.082300
      7 C15         -4.3640    -0.2800    -0.5580 ca         1 Q9P      -0.107000
      8 C17         -3.2680     1.8250    -1.0910 ca         1 Q9P      -0.107000
      9 O11          1.0430     2.0180     1.6020 oh         1 Q9P      -0.499100
     10 N8           2.3970     0.7840     0.1590 na         1 Q9P       0.008900
     11 N9           3.3970     1.6950     0.1970 nc         1 Q9P      -0.637100
     12 N5           3.8290    -0.1330    -1.1380 nd         1 Q9P      -0.375300
     13 C2           0.6510    -1.2380    -0.1750 cd         1 Q9P       0.522000
     14 Cl1         -0.4710    -2.5480    -0.3940 cl         1 Q9P      -0.121000
     15 C12         -1.0590    -0.0930     1.3960 c3         1 Q9P       0.042200
     16 C18         -2.2070     1.4890    -0.2310 ca         1 Q9P      -0.102500
     17 C16         -4.3460     0.9400    -1.2550 ca         1 Q9P      -0.107000
     18 C14         -3.3040    -0.6150     0.3010 ca         1 Q9P      -0.102500
     19 H2           5.2380     1.4900    -0.8780 h5         1 Q9P       0.078800
     20 H3          -5.1990    -0.9650    -0.6840 ha         1 Q9P       0.113500
     21 H4          -3.2530     2.7700    -1.6280 ha         1 Q9P       0.113500
     22 H5          -1.2460    -1.0580     1.8830 hc         1 Q9P       0.067200
     23 H6          -1.0440     0.6230     2.2260 hc         1 Q9P       0.067200
     24 H7          -1.3770     2.1820    -0.1100 ha         1 Q9P       0.110000
     25 H8          -5.1670     1.1990    -1.9200 ha         1 Q9P       0.114000
     26 H9          -3.3290    -1.5630     0.8350 ha         1 Q9P       0.110000
     27 H1           1.8880     2.5070     1.4670 ho         1 Q9P       0.524000
@<TRIPOS>BOND
     1     1     2 1   
     2     1    13 2   
     3     2    10 1   
     4     2    12 2   
     5     3     4 2   
     6     3    13 1   
     7     3    15 1   
     8     4     9 1   
     9     4    10 1   
    10     5    11 2   
    11     5    12 1   
    12     5    19 1   
    13     6    15 1   
    14     6    16 ar  
    15     6    18 ar  
    16     7    17 ar  
    17     7    18 ar  
    18     7    20 1   
    19     8    16 ar  
    20     8    17 ar  
    21     8    21 1   
    22     9    27 1   
    23    10    11 1   
    24    13    14 1   
    25    15    22 1   
    26    15    23 1   
    27    16    24 1   
    28    17    25 1   
    29    18    26 1   
@<TRIPOS>SUBSTRUCTURE
     1 Q9P         1 TEMP              0 ****  ****    0 ROOT
