@<TRIPOS>MOLECULE
Q9R
   50    53     1     0     0
SMALL
abcg2


@<TRIPOS>ATOM
      1 C10        -20.4140   -10.7660    19.7450 ca         1 Q9R       0.230100
      2 C13        -19.3940   -13.0370    17.5060 ca         1 Q9R      -0.288500
      3 C15        -17.6860   -13.7990    18.9980 ca         1 Q9R      -0.119500
      4 C17        -17.1500   -12.2550    17.2410 ca         1 Q9R      -0.119500
      5 C20        -14.5850   -11.8300    18.7620 ca         1 Q9R      -0.089500
      6 C21        -13.2640   -11.8220    19.1840 ca         1 Q9R      -0.116000
      7 C22        -12.6630   -12.9940    19.6240 ca         1 Q9R      -0.111000
      8 C24        -14.7160   -14.1820    19.2240 ca         1 Q9R      -0.089500
      9 N          -21.7440   -11.6960    17.9330 nu         1 Q9R      -0.813100
     10 C          -18.9530    -9.8360    21.5620 c          1 Q9R       0.728600
     11 O          -19.8500    -9.9420    18.8830 oh         1 Q9R      -0.652100
     12 C01        -23.1650   -15.6830    22.9750 ca         1 Q9R       0.071000
     13 C02        -23.3730   -15.3140    24.2930 ca         1 Q9R       0.151000
     14 C03        -23.0420   -14.0470    24.7270 ca         1 Q9R      -0.148000
     15 C04        -22.4940   -13.1440    23.8300 ca         1 Q9R      -0.086000
     16 C05        -22.2610   -13.4930    22.4980 cp         1 Q9R       0.012000
     17 C06        -22.6090   -14.7800    22.0840 ca         1 Q9R      -0.086000
     18 C07        -21.6430   -12.5420    21.5540 cp         1 Q9R      -0.154000
     19 C08        -20.6510   -11.6600    21.9740 ca         1 Q9R       0.000000
     20 C09        -20.0440   -10.7700    21.1010 ca         1 Q9R      -0.281600
     21 C11        -21.4080   -11.6600    19.3120 ca         1 Q9R       0.090000
     22 C12        -22.0210   -12.5140    20.2090 ca         1 Q9R      -0.027000
     23 C14        -19.0080   -13.8150    18.5900 ca         1 Q9R      -0.004000
     24 C16        -16.7370   -13.0210    18.3340 cp         1 Q9R       0.019000
     25 C18        -18.4710   -12.2520    16.8290 ca         1 Q9R      -0.004000
     26 C19        -15.3300   -13.0110    18.7770 cp         1 Q9R      -0.036000
     27 C23        -13.3940   -14.1750    19.6420 ca         1 Q9R      -0.116000
     28 O01        -21.2310   -12.5920    15.6570 o          1 Q9R      -0.558500
     29 O02        -21.7340   -14.1830    17.5380 o          1 Q9R      -0.558500
     30 O03        -18.5880    -9.8570    22.7350 o          1 Q9R      -0.672500
     31 O04        -18.4820    -9.0720    20.6540 o          1 Q9R      -0.672500
     32 S          -21.1030   -12.9680    17.0550 sy         1 Q9R       1.117600
     33 H08        -17.3990   -14.3870    19.8600 ha         1 Q9R       0.114000
     34 H09        -16.4300   -11.6610    16.6930 ha         1 Q9R       0.114000
     35 H13        -11.6320   -12.9870    19.9510 ha         1 Q9R       0.104000
     36 H15        -15.2670   -15.1150    19.2250 ha         1 Q9R       0.120000
     37 H06        -21.5710   -10.8170    17.4530 hn         1 Q9R       0.491000
     38 H          -19.1630    -9.4150    19.4920 ho         1 Q9R       0.565000
     39 H01        -23.2200   -13.7670    25.7570 ha         1 Q9R       0.125000
     40 H02        -22.2600   -12.1460    24.1790 ha         1 Q9R       0.130000
     41 H03        -22.4240   -15.0990    21.0660 ha         1 Q9R       0.142000
     42 H04        -20.3190   -11.6710    23.0050 ha         1 Q9R       0.128000
     43 H05        -22.8130   -13.1580    19.8500 ha         1 Q9R       0.124000
     44 H07        -19.7240   -14.4250    19.1230 ha         1 Q9R       0.132000
     45 H10        -18.7660   -11.6490    15.9810 ha         1 Q9R       0.132000
     46 H14        -12.9320   -15.0950    19.9760 ha         1 Q9R       0.108000
     47 CL         -23.5850   -17.2760    22.4690 cl         1 Q9R      -0.195000
     48 H11        -15.0460   -10.9040    18.4410 ha         1 Q9R       0.120000
     49 F          -23.8930   -16.1990    25.1470 f          1 Q9R      -0.177000
     50 H12        -12.7050   -10.8950    19.1750 ha         1 Q9R       0.108000
@<TRIPOS>BOND
     1     1    11 1   
     2     1    20 ar  
     3     1    21 ar  
     4     2    23 ar  
     5     2    25 ar  
     6     2    32 1   
     7     3    23 ar  
     8     3    24 ar  
     9     3    33 1   
    10     4    24 ar  
    11     4    25 ar  
    12     4    34 1   
    13     5     6 ar  
    14     5    26 ar  
    15     5    48 1   
    16     6     7 ar  
    17     6    50 1   
    18     7    27 ar  
    19     7    35 1   
    20     8    26 ar  
    21     8    27 ar  
    22     8    36 1   
    23     9    21 1   
    24     9    32 1   
    25     9    37 1   
    26    10    20 1   
    27    10    30 1   
    28    10    31 1   
    29    11    38 1   
    30    12    13 ar  
    31    12    17 ar  
    32    12    47 1   
    33    13    14 ar  
    34    13    49 1   
    35    14    15 ar  
    36    14    39 1   
    37    15    16 ar  
    38    15    40 1   
    39    16    17 ar  
    40    16    18 1   
    41    17    41 1   
    42    18    19 ar  
    43    18    22 ar  
    44    19    20 ar  
    45    19    42 1   
    46    21    22 ar  
    47    22    43 1   
    48    23    44 1   
    49    24    26 1   
    50    25    45 1   
    51    27    46 1   
    52    28    32 2   
    53    29    32 2   
@<TRIPOS>SUBSTRUCTURE
     1 Q9R         1 TEMP              0 ****  ****    0 ROOT
