@<TRIPOS>MOLECULE
Q9R
   50    53     1     0     0
SMALL
No Charge or Current Charge


@<TRIPOS>ATOM
      1 C10        -22.0420    -9.5360    19.6430 ca         1 Q9R       0.230100
      2 C13        -19.4050   -12.8550    17.3220 ca         1 Q9R      -0.288500
      3 C15        -18.2450   -14.7570    18.3080 ca         1 Q9R      -0.119500
      4 C17        -17.0880   -12.6410    18.0390 ca         1 Q9R      -0.119500
      5 C20        -15.0110   -13.7950    19.9570 ca         1 Q9R      -0.089500
      6 C21        -13.8730   -14.3490    20.5680 ca         1 Q9R      -0.116000
      7 C22        -13.5450   -15.6970    20.3540 ca         1 Q9R      -0.111000
      8 C24        -15.4960   -15.9370    18.9190 ca         1 Q9R      -0.089500
      9 N          -21.2310   -10.7880    17.7030 nu         1 Q9R      -0.813100
     10 C          -22.8660    -8.1680    21.6430 c          1 Q9R       0.728600
     11 O          -22.4360    -8.5270    18.8070 oh         1 Q9R      -0.652100
     12 C01        -19.0820   -14.4830    22.7800 ca         1 Q9R       0.071000
     13 C02        -19.7960   -14.8110    23.9480 ca         1 Q9R       0.151000
     14 C03        -20.9620   -14.1050    24.2810 ca         1 Q9R      -0.148000
     15 C04        -21.4200   -13.0690    23.4460 ca         1 Q9R      -0.086000
     16 C05        -20.7190   -12.7210    22.2630 cp         1 Q9R       0.012000
     17 C06        -19.5400   -13.4470    21.9500 ca         1 Q9R      -0.086000
     18 C07        -21.2030   -11.6240    21.3660 cp         1 Q9R      -0.154000
     19 C08        -21.8020   -10.4510    21.8840 ca         1 Q9R       0.000000
     20 C09        -22.2330    -9.4020    21.0390 ca         1 Q9R      -0.281600
     21 C11        -21.4450   -10.7020    19.0950 ca         1 Q9R       0.090000
     22 C12        -21.0510   -11.7330    19.9670 ca         1 Q9R      -0.027000
     23 C14        -19.4010   -14.2020    17.7360 ca         1 Q9R      -0.004000
     24 C16        -17.0670   -13.9880    18.4790 cp         1 Q9R       0.019000
     25 C18        -18.2410   -12.0780    17.4660 ca         1 Q9R      -0.004000
     26 C19        -15.8470   -14.5770    19.1190 cp         1 Q9R      -0.036000
     27 C23        -14.3570   -16.4900    19.5280 ca         1 Q9R      -0.116000
     28 O01        -20.6310   -11.4430    15.4120 o          1 Q9R      -0.558500
     29 O02        -22.0530   -12.9980    16.8720 o          1 Q9R      -0.558500
     30 O03        -23.0170    -8.1210    22.8540 o          1 Q9R      -0.672500
     31 O04        -23.2050    -7.2660    20.8880 o          1 Q9R      -0.672500
     32 S          -20.9100   -12.0980    16.6920 sy         1 Q9R       1.117600
     33 H08        -18.2730   -15.7890    18.6460 ha         1 Q9R       0.114000
     34 H09        -16.2000   -12.0230    18.1420 ha         1 Q9R       0.114000
     35 H13        -12.6640   -16.1260    20.8270 ha         1 Q9R       0.104000
     36 H15        -16.1050   -16.5660    18.2750 ha         1 Q9R       0.120000
     37 H06        -21.6210   -10.0470    17.1350 hn         1 Q9R       0.491000
     38 H          -22.8110    -7.8330    19.4230 ho         1 Q9R       0.565000
     39 H01        -21.5130   -14.3640    25.1820 ha         1 Q9R       0.125000
     40 H02        -22.3330   -12.5420    23.7110 ha         1 Q9R       0.130000
     41 H03        -18.9660   -13.1980    21.0620 ha         1 Q9R       0.142000
     42 H04        -21.9140   -10.3560    22.9620 ha         1 Q9R       0.128000
     43 H05        -20.6170   -12.6400    19.5680 ha         1 Q9R       0.124000
     44 H07        -20.2960   -14.8150    17.6400 ha         1 Q9R       0.132000
     45 H10        -18.2340   -11.0340    17.1560 ha         1 Q9R       0.132000
     46 H14        -14.1040   -17.5350    19.3590 ha         1 Q9R       0.108000
     47 Cl         -17.6120   -15.3540    22.3410 cl         1 Q9R      -0.195000
     48 H11        -15.2560   -12.7540    20.1500 ha         1 Q9R       0.120000
     49 F          -19.3670   -15.8070    24.7570 f          1 Q9R      -0.177000
     50 H12        -13.2480   -13.7330    21.2110 ha         1 Q9R       0.108000
@<TRIPOS>BOND
     1     1    11 1   
     2     1    20 ar  
     3     1    21 ar  
     4     2    23 ar  
     5     2    25 ar  
     6     2    32 1   
     7     3    23 ar  
     8     3    24 ar  
     9     3    33 1   
    10     4    24 ar  
    11     4    25 ar  
    12     4    34 1   
    13     5     6 ar  
    14     5    26 ar  
    15     5    48 1   
    16     6     7 ar  
    17     6    50 1   
    18     7    27 ar  
    19     7    35 1   
    20     8    26 ar  
    21     8    27 ar  
    22     8    36 1   
    23     9    21 1   
    24     9    32 1   
    25     9    37 1   
    26    10    20 1   
    27    10    30 1   
    28    10    31 1   
    29    11    38 1   
    30    12    13 ar  
    31    12    17 ar  
    32    12    47 1   
    33    13    14 ar  
    34    13    49 1   
    35    14    15 ar  
    36    14    39 1   
    37    15    16 ar  
    38    15    40 1   
    39    16    17 ar  
    40    16    18 1   
    41    17    41 1   
    42    18    19 ar  
    43    18    22 ar  
    44    19    20 ar  
    45    19    42 1   
    46    21    22 ar  
    47    22    43 1   
    48    23    44 1   
    49    24    26 1   
    50    25    45 1   
    51    27    46 1   
    52    28    32 2   
    53    29    32 2   
@<TRIPOS>SUBSTRUCTURE
     1 Q9R         1 TEMP              0 ****  ****    0 ROOT
