@<TRIPOS>MOLECULE
Q9T
   22    23     1     0     0
SMALL
bcc


@<TRIPOS>ATOM
      1 C4           0.3740     1.1970    -0.0940 ca         1 Q9T      -0.021000
      2 C5          -0.1340    -0.0950    -0.2030 ca         1 Q9T      -0.195500
      3 C6          -1.5830    -0.2500    -0.2320 cc         1 Q9T       0.359200
      4 C7          -2.5690     0.4590     0.3780 cd         1 Q9T      -0.353600
      5 C8          -3.7400    -0.1720    -0.0880 cd         1 Q9T       0.216600
      6 C15          0.7330    -1.1980    -0.2410 ca         1 Q9T       0.228100
      7 C17          2.1080    -0.9500    -0.1780 ca         1 Q9T      -0.136900
      8 F12         -6.0130    -0.7060    -0.2230 f          1 Q9T      -0.220967
      9 C9          -5.1480     0.1860     0.2470 c3         1 Q9T       0.656600
     10 F11         -5.3090     0.2660     1.5700 f          1 Q9T      -0.220967
     11 F10         -5.4680     1.3790    -0.2620 f          1 Q9T      -0.220967
     12 N13         -3.4790    -1.1580    -0.8920 nc         1 Q9T      -0.297300
     13 O14         -2.1370    -1.2070    -0.9860 os         1 Q9T      -0.072100
     14 C2           1.7380     1.4040    -0.0250 ca         1 Q9T      -0.072900
     15 BR3          2.4140     3.1550     0.1170 br         1 Q9T      -0.068100
     16 C1           2.6160     0.3340    -0.0700 ca         1 Q9T      -0.009000
     17 BR8          3.3120    -2.3980    -0.2310 br         1 Q9T      -0.073100
     18 O16          0.1880    -2.4090    -0.3160 oh         1 Q9T      -0.464100
     19 H1          -0.3130     2.0320    -0.0790 ha         1 Q9T       0.160000
     20 H2          -2.4770     1.2830     1.0650 ha         1 Q9T       0.186000
     21 H3           3.6860     0.4900    -0.0240 ha         1 Q9T       0.167000
     22 H4           0.8420    -3.1190    -0.2780 ho         1 Q9T       0.454000
@<TRIPOS>BOND
     1     1     2 ar  
     2     1    14 ar  
     3     1    19 1   
     4     2     3 1   
     5     2     6 ar  
     6     3     4 2   
     7     3    13 1   
     8     4     5 1   
     9     4    20 1   
    10     5     9 1   
    11     5    12 2   
    12     6     7 ar  
    13     6    18 1   
    14     7    16 ar  
    15     7    17 1   
    16     8     9 1   
    17     9    10 1   
    18     9    11 1   
    19    12    13 1   
    20    14    15 1   
    21    14    16 ar  
    22    16    21 1   
    23    18    22 1   
@<TRIPOS>SUBSTRUCTURE
     1 Q9T         1 TEMP              0 ****  ****    0 ROOT
