@<TRIPOS>MOLECULE
Q9T
   22    23     1     0     0
SMALL
No Charge or Current Charge


@<TRIPOS>ATOM
      1 C4           0.3400     1.1630     0.0380 ca         1 Q9T      -0.003000
      2 C5          -0.1600    -0.1350    -0.2060 ca         1 Q9T      -0.195500
      3 C6          -1.6060    -0.3380    -0.3340 cc         1 Q9T       0.249500
      4 C7          -2.5640     0.3700     0.3160 cd         1 Q9T      -0.205000
      5 C8          -3.7920    -0.1510    -0.1490 cd         1 Q9T       0.151300
      6 C15          0.7540    -1.2080    -0.3230 ca         1 Q9T       0.228100
      7 C17          2.1390    -0.9790    -0.2000 ca         1 Q9T      -0.136900
      8 F12         -5.8900    -0.7180     0.8250 f          1 Q9T      -0.099667
      9 C9          -5.1820     0.2950     0.2720 c3         1 Q9T       0.292700
     10 F11         -5.1440     1.2910     1.1870 f          1 Q9T      -0.099667
     11 F10         -5.9030     0.7550    -0.7770 f          1 Q9T      -0.099667
     12 N13         -3.6220    -1.1200    -1.0420 nc         1 Q9T      -0.297300
     13 O14         -2.1860    -1.2510    -1.1760 os         1 Q9T      -0.027700
     14 C2           1.7220     1.3850     0.1590 ca         1 Q9T      -0.072900
     15 Br3          2.3770     3.1520     0.4840 br         1 Q9T      -0.068100
     16 C1           2.6240     0.3170     0.0400 ca         1 Q9T       0.009000
     17 Br8          3.3970    -2.4230    -0.3500 br         1 Q9T      -0.073100
     18 O16          0.3080    -2.4790    -0.5340 oh         1 Q9T      -0.503100
     19 H1          -0.3390     2.0090     0.1230 ha         1 Q9T       0.142000
     20 H2          -2.4170     1.1610     1.0420 ha         1 Q9T       0.168000
     21 H3           3.6930     0.4930     0.1350 ha         1 Q9T       0.149000
     22 H4           1.0930    -3.0650    -0.5750 ho         1 Q9T       0.493000
@<TRIPOS>BOND
     1     1     2 ar  
     2     1    14 ar  
     3     1    19 1   
     4     2     3 1   
     5     2     6 ar  
     6     3     4 2   
     7     3    13 1   
     8     4     5 1   
     9     4    20 1   
    10     5     9 1   
    11     5    12 2   
    12     6     7 ar  
    13     6    18 1   
    14     7    16 ar  
    15     7    17 1   
    16     8     9 1   
    17     9    10 1   
    18     9    11 1   
    19    12    13 1   
    20    14    15 1   
    21    14    16 ar  
    22    16    21 1   
    23    18    22 1   
@<TRIPOS>SUBSTRUCTURE
     1 Q9T         1 TEMP              0 ****  ****    0 ROOT
