@<TRIPOS>MOLECULE
Q9W
   54    57     1     0     0
SMALL
abcg2


@<TRIPOS>ATOM
      1 O          -35.9730     0.3230    15.4380 oh         1 Q9W      -0.686000
      2 C1         -34.4220     0.4570    13.6190 c5         1 Q9W       0.132300
      3 C2         -34.4550    -1.5270    14.9060 c5         1 Q9W       0.128300
      4 C3         -34.3370    -2.7160    13.9740 c3         1 Q9W       0.150600
      5 C4         -33.1900     0.4200    14.5230 c5         1 Q9W       0.312300
      6 C5         -31.3800    -0.1230    12.8410 cc         1 Q9W       0.417700
      7 C6         -30.1000     1.5830    13.0330 ca         1 Q9W      -0.086600
      8 N          -31.9480     0.6620    13.8210 na         1 Q9W      -0.297300
      9 C          -35.4000    -0.4380    14.3830 c5         1 Q9W       0.108300
     10 C10        -27.9430     1.7840    10.9470 c3         1 Q9W       0.230800
     11 C11        -28.9850     2.0440     9.8600 c3         1 Q9W      -0.107400
     12 C12        -28.9500     0.9960     8.7520 c3         1 Q9W      -0.065400
     13 C13        -30.1920     1.0440     7.8450 c3         1 Q9W      -0.030100
     14 C14        -31.4550     0.6420     8.5680 ca         1 Q9W      -0.066300
     15 C15        -32.3580     1.5950     9.0440 ca         1 Q9W      -0.098500
     16 C16        -33.5020     1.2140     9.7400 ca         1 Q9W      -0.110000
     17 C17        -33.7640    -0.1320     9.9670 ca         1 Q9W      -0.131000
     18 C18        -32.8690    -1.0930     9.5050 ca         1 Q9W      -0.110000
     19 C19        -31.7270    -0.7060     8.8140 ca         1 Q9W      -0.098500
     20 C7         -31.1330     1.7620    13.9590 ca         1 Q9W       0.144500
     21 C8         -30.3070     3.6900    14.6570 ca         1 Q9W       0.176900
     22 C9         -29.1450     2.6220    12.9540 ca         1 Q9W       0.434900
     23 N1         -30.2790     0.3850    12.3530 nd         1 Q9W      -0.553100
     24 N2         -31.2840     2.7940    14.7960 nb         1 Q9W      -0.211000
     25 N3         -29.2830     3.6660    13.8030 nb         1 Q9W      -0.301000
     26 N4         -28.1010     2.6570    12.1050 nu         1 Q9W      -0.910100
     27 O1         -34.8170     1.7890    13.3920 oh         1 Q9W      -0.671000
     28 O2         -33.4460    -3.6630    14.5610 oh         1 Q9W      -0.704000
     29 O3         -33.1700    -0.8770    15.0880 os         1 Q9W      -0.435000
     30 H1         -36.5540    -0.2560    15.9460 ho         1 Q9W       0.505000
     31 H2         -34.1770    -0.0360    12.6770 h1         1 Q9W       0.046700
     32 H3         -34.7810    -1.8760    15.8880 h1         1 Q9W       0.087700
     33 H4         -33.9710    -2.4000    12.9920 h1         1 Q9W       0.024200
     34 H5         -35.3360    -3.1480    13.8480 h1         1 Q9W       0.024200
     35 H6         -33.2610     1.1900    15.2930 h2         1 Q9W       0.128700
     36 H7         -31.8230    -1.0580    12.5410 h5         1 Q9W       0.065800
     37 H8         -36.1760    -0.8480    13.7320 h1         1 Q9W       0.051700
     38 H9         -28.0130     0.7480    11.2770 h1         1 Q9W       0.062700
     39 H10        -26.9340     1.9420    10.5660 h1         1 Q9W       0.062700
     40 H11        -28.8380     3.0430     9.4400 hc         1 Q9W       0.051200
     41 H12        -29.9700     2.0370    10.3260 hc         1 Q9W       0.051200
     42 H13        -28.8820    -0.0010     9.1980 hc         1 Q9W       0.043700
     43 H14        -28.0530     1.1280     8.1390 hc         1 Q9W       0.043700
     44 H15        -30.0350     0.3710     6.9980 hc         1 Q9W       0.047200
     45 H16        -30.3060     2.0520     7.4400 hc         1 Q9W       0.047200
     46 H17        -32.1620     2.6460     8.8660 ha         1 Q9W       0.113000
     47 H18        -34.1870     1.9700    10.1050 ha         1 Q9W       0.107500
     48 H19        -34.6600    -0.4340    10.4970 ha         1 Q9W       0.097000
     49 H20        -33.0630    -2.1440     9.6810 ha         1 Q9W       0.107500
     50 H21        -31.0350    -1.4600     8.4560 ha         1 Q9W       0.113000
     51 H22        -30.3520     4.5530    15.3130 h5         1 Q9W       0.047100
     52 H23        -27.5820     3.5220    12.1170 hn         1 Q9W       0.497000
     53 H24        -35.3260     1.8270    12.5730 ho         1 Q9W       0.507000
     54 H25        -33.3340    -4.3950    13.9440 ho         1 Q9W       0.505000
@<TRIPOS>BOND
     1     1     9 1   
     2     1    30 1   
     3     2     5 1   
     4     2     9 1   
     5     2    27 1   
     6     2    31 1   
     7     3     4 1   
     8     3     9 1   
     9     3    29 1   
    10     3    32 1   
    11     4    28 1   
    12     4    33 1   
    13     4    34 1   
    14     5     8 1   
    15     5    29 1   
    16     5    35 1   
    17     6     8 1   
    18     6    23 2   
    19     6    36 1   
    20     7    20 ar  
    21     7    22 ar  
    22     7    23 1   
    23     8    20 1   
    24     9    37 1   
    25    10    11 1   
    26    10    26 1   
    27    10    38 1   
    28    10    39 1   
    29    11    12 1   
    30    11    40 1   
    31    11    41 1   
    32    12    13 1   
    33    12    42 1   
    34    12    43 1   
    35    13    14 1   
    36    13    44 1   
    37    13    45 1   
    38    14    15 ar  
    39    14    19 ar  
    40    15    16 ar  
    41    15    46 1   
    42    16    17 ar  
    43    16    47 1   
    44    17    18 ar  
    45    17    48 1   
    46    18    19 ar  
    47    18    49 1   
    48    19    50 1   
    49    20    24 ar  
    50    21    24 ar  
    51    21    25 ar  
    52    21    51 1   
    53    22    25 ar  
    54    22    26 1   
    55    26    52 1   
    56    27    53 1   
    57    28    54 1   
@<TRIPOS>SUBSTRUCTURE
     1 Q9W         1 TEMP              0 ****  ****    0 ROOT
