@<TRIPOS>MOLECULE
Q9W
   54    57     1     0     0
SMALL
No Charge or Current Charge


@<TRIPOS>ATOM
      1 O          -36.4000     0.2600    15.1580 oh         1 Q9W      -0.686000
      2 C1         -34.7410     0.0040    13.3500 c5         1 Q9W       0.132300
      3 C2         -34.4540    -1.3180    15.3170 c5         1 Q9W       0.128300
      4 C3         -33.8120    -2.6060    14.7110 c3         1 Q9W       0.150600
      5 C4         -33.5580     0.5780    14.2170 c5         1 Q9W       0.312300
      6 C5         -31.7080    -0.1550    12.6170 cc         1 Q9W       0.417700
      7 C6         -30.2410     1.3800    13.0230 ca         1 Q9W      -0.086600
      8 N          -32.2330     0.6840    13.6030 na         1 Q9W      -0.297300
      9 C          -35.5940    -0.7000    14.4430 c5         1 Q9W       0.108300
     10 C10        -27.8480     1.4210    10.9850 c3         1 Q9W       0.230800
     11 C11        -28.8030     1.9750     9.9040 c3         1 Q9W      -0.107400
     12 C12        -28.8400     1.1080     8.6230 c3         1 Q9W      -0.065400
     13 C13        -30.0570     1.4040     7.7150 c3         1 Q9W      -0.030100
     14 C14        -31.3750     0.9780     8.3580 ca         1 Q9W      -0.066300
     15 C15        -32.2500     1.9380     8.9070 ca         1 Q9W      -0.098500
     16 C16        -33.4450     1.5350     9.5290 ca         1 Q9W      -0.110000
     17 C17        -33.7770     0.1720     9.6010 ca         1 Q9W      -0.131000
     18 C18        -32.9120    -0.7890     9.0540 ca         1 Q9W      -0.110000
     19 C19        -31.7150    -0.3880     8.4360 ca         1 Q9W      -0.098500
     20 C7         -31.3020     1.6500    13.8550 ca         1 Q9W       0.144500
     21 C8         -30.2020     3.4730    14.6820 ca         1 Q9W       0.176900
     22 C9         -29.1260     2.2630    13.0520 ca         1 Q9W       0.434900
     23 N1         -30.4750     0.2330    12.2520 nd         1 Q9W      -0.553100
     24 N2         -31.3100     2.6980    14.7010 nb         1 Q9W      -0.211000
     25 N3         -29.1120     3.3090    13.8980 nb         1 Q9W      -0.301000
     26 N4         -27.9890     2.1670    12.2480 nu         1 Q9W      -0.910100
     27 O1         -35.5260     1.0070    12.6940 oh         1 Q9W      -0.671000
     28 O2         -32.9220    -3.2330    15.6500 oh         1 Q9W      -0.704000
     29 O3         -33.4710    -0.2520    15.4040 os         1 Q9W      -0.435000
     30 H1         -36.8940    -0.2270    15.8590 ho         1 Q9W       0.505000
     31 H2         -34.3800    -0.7280    12.6170 h1         1 Q9W       0.046700
     32 H3         -34.8140    -1.5610    16.3250 h1         1 Q9W       0.087700
     33 H4         -33.2750    -2.3570    13.7870 h1         1 Q9W       0.024200
     34 H5         -34.6190    -3.3020    14.4450 h1         1 Q9W       0.024200
     35 H6         -33.8230     1.5960    14.5310 h2         1 Q9W       0.128700
     36 H7         -32.2450    -1.0090    12.2240 h5         1 Q9W       0.065800
     37 H8         -36.2320    -1.4830    14.0080 h1         1 Q9W       0.051700
     38 H9         -28.0590     0.3560    11.1540 h1         1 Q9W       0.062700
     39 H10        -26.8140     1.4910    10.6170 h1         1 Q9W       0.062700
     40 H11        -28.5100     2.9990     9.6450 hc         1 Q9W       0.051200
     41 H12        -29.8130     2.0390    10.3200 hc         1 Q9W       0.051200
     42 H13        -28.8580     0.0460     8.8980 hc         1 Q9W       0.043700
     43 H14        -27.9160     1.2700     8.0550 hc         1 Q9W       0.043700
     44 H15        -29.9250     0.8710     6.7660 hc         1 Q9W       0.047200
     45 H16        -30.0710     2.4720     7.4640 hc         1 Q9W       0.047200
     46 H17        -31.9990     2.9950     8.8620 ha         1 Q9W       0.113000
     47 H18        -34.1130     2.2800     9.9560 ha         1 Q9W       0.107500
     48 H19        -34.7030    -0.1370    10.0800 ha         1 Q9W       0.097000
     49 H20        -33.1660    -1.8450     9.1110 ha         1 Q9W       0.107500
     50 H21        -31.0470    -1.1390     8.0210 ha         1 Q9W       0.113000
     51 H22        -30.1910     4.3220    15.3640 h5         1 Q9W       0.047100
     52 H23        -27.2920     2.8890    12.4340 hn         1 Q9W       0.497000
     53 H24        -36.2230     1.2260    13.3620 ho         1 Q9W       0.507000
     54 H25        -32.5480    -4.0320    15.2090 ho         1 Q9W       0.505000
@<TRIPOS>BOND
     1     1     9 1   
     2     1    30 1   
     3     2     5 1   
     4     2     9 1   
     5     2    27 1   
     6     2    31 1   
     7     3     4 1   
     8     3     9 1   
     9     3    29 1   
    10     3    32 1   
    11     4    28 1   
    12     4    33 1   
    13     4    34 1   
    14     5     8 1   
    15     5    29 1   
    16     5    35 1   
    17     6     8 1   
    18     6    23 2   
    19     6    36 1   
    20     7    20 ar  
    21     7    22 ar  
    22     7    23 1   
    23     8    20 1   
    24     9    37 1   
    25    10    11 1   
    26    10    26 1   
    27    10    38 1   
    28    10    39 1   
    29    11    12 1   
    30    11    40 1   
    31    11    41 1   
    32    12    13 1   
    33    12    42 1   
    34    12    43 1   
    35    13    14 1   
    36    13    44 1   
    37    13    45 1   
    38    14    15 ar  
    39    14    19 ar  
    40    15    16 ar  
    41    15    46 1   
    42    16    17 ar  
    43    16    47 1   
    44    17    18 ar  
    45    17    48 1   
    46    18    19 ar  
    47    18    49 1   
    48    19    50 1   
    49    20    24 ar  
    50    21    24 ar  
    51    21    25 ar  
    52    21    51 1   
    53    22    25 ar  
    54    22    26 1   
    55    26    52 1   
    56    27    53 1   
    57    28    54 1   
@<TRIPOS>SUBSTRUCTURE
     1 Q9W         1 TEMP              0 ****  ****    0 ROOT
