@<TRIPOS>MOLECULE
Q9Y
   31    31     1     0     0
SMALL
abcg2


@<TRIPOS>ATOM
      1 C15        -12.8550   -75.2900    34.2450 c3         1 Q9Y       0.099300
      2 C01         -9.4780   -79.8580    29.3550 c3         1 Q9Y      -0.087600
      3 C02         -9.8550   -80.0350    30.8280 c3         1 Q9Y      -0.063700
      4 C03         -8.9300   -79.1880    31.7080 c3         1 Q9Y      -0.087600
      5 C04        -11.3410   -79.6990    31.0300 c3         1 Q9Y      -0.092400
      6 C05        -12.0310   -80.3630    32.2190 c3         1 Q9Y       0.084600
      7 C09        -10.7680   -79.0400    35.3200 cc         1 Q9Y       0.464300
      8 C11        -11.5560   -78.8080    34.2010 cd         1 Q9Y      -0.290600
      9 C12        -12.3610   -77.6410    33.7950 c          1 Q9Y       0.650700
     10 N06        -11.4780   -79.9920    33.5240 na         1 Q9Y       0.180800
     11 N07        -10.7130   -80.8580    34.1680 nd         1 Q9Y      -0.173800
     12 N08        -10.2750   -80.2860    35.2750 nc         1 Q9Y      -0.435000
     13 N14        -12.1290   -76.5210    34.5030 ns         1 Q9Y      -0.494900
     14 O13        -13.1900   -77.6970    32.8820 o          1 Q9Y      -0.622100
     15 H1         -12.4990   -74.5330    34.9400 h1         1 Q9Y       0.043367
     16 H2         -12.6870   -74.9450    33.2230 h1         1 Q9Y       0.043367
     17 H3         -13.9280   -75.4320    34.3890 h1         1 Q9Y       0.043367
     18 H4         -10.0800   -80.5040    28.7120 hc         1 Q9Y       0.034867
     19 H5          -9.6410   -78.8230    29.0390 hc         1 Q9Y       0.034867
     20 H6          -8.4250   -80.0970    29.1900 hc         1 Q9Y       0.034867
     21 H7          -9.7090   -81.0900    31.0890 hc         1 Q9Y       0.051700
     22 H8          -9.1030   -79.3410    32.7720 hc         1 Q9Y       0.034867
     23 H9          -7.8840   -79.4310    31.5060 hc         1 Q9Y       0.034867
     24 H10         -9.0740   -78.1250    31.4940 hc         1 Q9Y       0.034867
     25 H11        -11.4740   -78.6160    31.0860 hc         1 Q9Y       0.063200
     26 H12        -11.9040   -80.0350    30.1550 hc         1 Q9Y       0.063200
     27 H13        -13.0870   -80.1090    32.2290 h1         1 Q9Y       0.083700
     28 H14        -11.9230   -81.4450    32.1690 h1         1 Q9Y       0.083700
     29 H16        -11.4410   -76.5340    35.2390 hn         1 Q9Y       0.339500
     30 H15         -9.9430   -78.5850    36.9720 ho         1 Q9Y       0.496000
     31 O10        -10.5290   -78.1760    36.3170 oh         1 Q9Y      -0.649300
@<TRIPOS>BOND
     1     1    13 1   
     2     1    15 1   
     3     1    16 1   
     4     1    17 1   
     5     2     3 1   
     6     2    18 1   
     7     2    19 1   
     8     2    20 1   
     9     3     4 1   
    10     3     5 1   
    11     3    21 1   
    12     4    22 1   
    13     4    23 1   
    14     4    24 1   
    15     5     6 1   
    16     5    25 1   
    17     5    26 1   
    18     6    10 1   
    19     6    27 1   
    20     6    28 1   
    21     7     8 2   
    22     7    12 1   
    23     7    31 1   
    24     8     9 1   
    25     8    10 1   
    26     9    13 1   
    27     9    14 2   
    28    10    11 1   
    29    11    12 2   
    30    13    29 1   
    31    30    31 1   
@<TRIPOS>SUBSTRUCTURE
     1 Q9Y         1 TEMP              0 ****  ****    0 ROOT
