@<TRIPOS>MOLECULE
Q9Y
   31    31     1     0     0
SMALL
No Charge or Current Charge


@<TRIPOS>ATOM
      1 C15        -13.0140   -75.1940    34.4220 c3         1 Q9Y       0.099300
      2 C01         -9.5040   -79.8460    29.1850 c3         1 Q9Y      -0.087600
      3 C02         -9.8210   -80.1590    30.6660 c3         1 Q9Y      -0.063700
      4 C03         -8.7610   -79.4970    31.5820 c3         1 Q9Y      -0.087600
      5 C04        -11.2830   -79.7500    31.0110 c3         1 Q9Y      -0.092400
      6 C05        -11.9100   -80.3820    32.2870 c3         1 Q9Y       0.084600
      7 C09        -10.8450   -78.8490    35.3540 cc         1 Q9Y       0.464300
      8 C11        -11.5590   -78.6990    34.2100 cd         1 Q9Y      -0.290600
      9 C12        -12.3520   -77.5310    33.7780 c          1 Q9Y       0.650700
     10 N06        -11.3730   -79.9160    33.5800 na         1 Q9Y       0.180800
     11 N07        -10.6170   -80.7500    34.3710 nd         1 Q9Y      -0.173800
     12 N08        -10.2880   -80.0790    35.4450 nc         1 Q9Y      -0.435000
     13 N14        -12.3100   -76.4600    34.6320 ns         1 Q9Y      -0.494900
     14 O13        -13.0090   -77.5030    32.7490 o          1 Q9Y      -0.622100
     15 H1         -12.8020   -74.5140    35.2560 h1         1 Q9Y       0.043367
     16 H2         -12.6750   -74.7340    33.4850 h1         1 Q9Y       0.043367
     17 H3         -14.0950   -75.3770    34.3690 h1         1 Q9Y       0.043367
     18 H4         -10.2030   -80.3640    28.5180 hc         1 Q9Y       0.034867
     19 H5          -9.5770   -78.7690    28.9890 hc         1 Q9Y       0.034867
     20 H6          -8.4900   -80.1740    28.9250 hc         1 Q9Y       0.034867
     21 H7          -9.7350   -81.2470    30.7880 hc         1 Q9Y       0.051700
     22 H8          -8.8280   -79.8620    32.6100 hc         1 Q9Y       0.034867
     23 H9          -7.7490   -79.7250    31.2270 hc         1 Q9Y       0.034867
     24 H10         -8.8790   -78.4070    31.5920 hc         1 Q9Y       0.034867
     25 H11        -11.3500   -78.6570    31.0650 hc         1 Q9Y       0.063200
     26 H12        -11.9270   -80.0440    30.1730 hc         1 Q9Y       0.063200
     27 H13        -12.9860   -80.1720    32.2870 h1         1 Q9Y       0.083700
     28 H14        -11.8000   -81.4720    32.2350 h1         1 Q9Y       0.083700
     29 H16        -11.7440   -76.5820    35.4670 hn         1 Q9Y       0.339500
     30 H15        -10.1220   -78.4270    36.9840 ho         1 Q9Y       0.496000
     31 O10        -10.6830   -77.9550    36.3320 oh         1 Q9Y      -0.649300
@<TRIPOS>BOND
     1     1    13 1   
     2     1    15 1   
     3     1    16 1   
     4     1    17 1   
     5     2     3 1   
     6     2    18 1   
     7     2    19 1   
     8     2    20 1   
     9     3     4 1   
    10     3     5 1   
    11     3    21 1   
    12     4    22 1   
    13     4    23 1   
    14     4    24 1   
    15     5     6 1   
    16     5    25 1   
    17     5    26 1   
    18     6    10 1   
    19     6    27 1   
    20     6    28 1   
    21     7     8 2   
    22     7    12 1   
    23     7    31 1   
    24     8     9 1   
    25     8    10 1   
    26     9    13 1   
    27     9    14 2   
    28    10    11 1   
    29    11    12 2   
    30    13    29 1   
    31    30    31 1   
@<TRIPOS>SUBSTRUCTURE
     1 Q9Y         1 TEMP              0 ****  ****    0 ROOT
