@<TRIPOS>MOLECULE
Q9Z
   24    24     1     0     0
SMALL
No Charge or Current Charge


@<TRIPOS>ATOM
      1 C01         -3.5430     1.2310     0.5760 c3         1 Q9Z      -0.090600
      2 C02         -3.0760    -0.1520     0.0610 c3         1 Q9Z      -0.058700
      3 C03         -3.9290    -0.6010    -1.1470 c3         1 Q9Z      -0.090600
      4 C04         -1.5630    -0.1860    -0.2850 c3         1 Q9Z      -0.100400
      5 C05         -0.6200     0.0910     0.9080 c3         1 Q9Z       0.247800
      6 C07          1.6270     0.9820    -0.1170 c5         1 Q9Z       0.030800
      7 C08          2.9170     0.1750    -0.3080 c          1 Q9Z       0.644500
      8 N06          0.8060    -0.0440     0.5560 nh         1 Q9Z      -0.496700
      9 N10          2.6680    -1.1000     0.2210 ne         1 Q9Z      -0.363400
     10 N11          1.4870    -1.2010     0.6770 n2         1 Q9Z       0.050300
     11 H1          -3.3350     2.0150    -0.1630 hc         1 Q9Z       0.036200
     12 H2          -4.6220     1.2260     0.7720 hc         1 Q9Z       0.036200
     13 H3          -3.0410     1.4980     1.5140 hc         1 Q9Z       0.036200
     14 H4          -3.2510    -0.8780     0.8660 hc         1 Q9Z       0.049700
     15 H5          -3.8030     0.0870    -1.9920 hc         1 Q9Z       0.036200
     16 H6          -3.6380    -1.6060    -1.4760 hc         1 Q9Z       0.036200
     17 H7          -4.9930    -0.6290    -0.8830 hc         1 Q9Z       0.036200
     18 H8          -1.3160    -1.1740    -0.6910 hc         1 Q9Z       0.052700
     19 H9          -1.3540     0.5410    -1.0800 hc         1 Q9Z       0.052700
     20 H10         -0.7980     1.1050     1.2860 h1         1 Q9Z       0.068200
     21 H11         -0.8620    -0.6060     1.7220 h1         1 Q9Z       0.068200
     22 H12          1.8310     1.8570     0.5140 h1         1 Q9Z       0.099700
     23 H13          1.2330     1.2820    -1.0960 h1         1 Q9Z       0.099700
     24 O09          3.9640     0.5560    -0.8190 o          1 Q9Z      -0.480100
@<TRIPOS>BOND
     1     1     2 1   
     2     1    11 1   
     3     1    12 1   
     4     1    13 1   
     5     2     3 1   
     6     2     4 1   
     7     2    14 1   
     8     3    15 1   
     9     3    16 1   
    10     3    17 1   
    11     4     5 1   
    12     4    18 1   
    13     4    19 1   
    14     5     8 1   
    15     5    20 1   
    16     5    21 1   
    17     6     7 1   
    18     6     8 1   
    19     6    22 1   
    20     6    23 1   
    21     7     9 1   
    22     7    24 2   
    23     8    10 1   
    24     9    10 2   
@<TRIPOS>SUBSTRUCTURE
     1 Q9Z         1 TEMP              0 ****  ****    0 ROOT
