@<TRIPOS>MOLECULE
Q9Z
   24    24     1     0     0
SMALL
abcg2


@<TRIPOS>ATOM
      1 C01         -3.4780     1.2110     0.5880 c3         1 Q9Z      -0.090600
      2 C02         -3.0320    -0.1510     0.0650 c3         1 Q9Z      -0.058700
      3 C03         -3.8810    -0.5600    -1.1350 c3         1 Q9Z      -0.090600
      4 C04         -1.5490    -0.1690    -0.3120 c3         1 Q9Z      -0.100400
      5 C05         -0.6340     0.0530     0.8870 c3         1 Q9Z       0.247800
      6 C07          1.5430     0.9270    -0.1780 c5         1 Q9Z       0.030800
      7 C08          2.8560     0.1800    -0.2640 c          1 Q9Z       0.644500
      8 N06          0.7670    -0.0450     0.5360 nh         1 Q9Z      -0.496700
      9 N10          2.6610    -1.0470     0.3650 ne         1 Q9Z      -0.363400
     10 N11          1.4540    -1.1030     0.7860 n2         1 Q9Z       0.050300
     11 H1          -3.3290     1.9840    -0.1710 hc         1 Q9Z       0.036200
     12 H2          -4.5390     1.1990     0.8430 hc         1 Q9Z       0.036200
     13 H3          -2.9360     1.5170     1.4840 hc         1 Q9Z       0.036200
     14 H4          -3.1860    -0.8920     0.8580 hc         1 Q9Z       0.049700
     15 H5          -3.7680     0.1540    -1.9540 hc         1 Q9Z       0.036200
     16 H6          -3.5980    -1.5450    -1.5110 hc         1 Q9Z       0.036200
     17 H7          -4.9390    -0.5960    -0.8720 hc         1 Q9Z       0.036200
     18 H8          -1.3000    -1.1360    -0.7580 hc         1 Q9Z       0.052700
     19 H9          -1.3610     0.5940    -1.0750 hc         1 Q9Z       0.052700
     20 H10         -0.7890     1.0350     1.3340 h1         1 Q9Z       0.068200
     21 H11         -0.8200    -0.6960     1.6570 h1         1 Q9Z       0.068200
     22 H12          1.6330     1.8620     0.3780 h1         1 Q9Z       0.099700
     23 H13          1.1280     1.1450    -1.1650 h1         1 Q9Z       0.099700
     24 O09          3.8870     0.5470    -0.7690 o          1 Q9Z      -0.480100
@<TRIPOS>BOND
     1     1     2 1   
     2     1    11 1   
     3     1    12 1   
     4     1    13 1   
     5     2     3 1   
     6     2     4 1   
     7     2    14 1   
     8     3    15 1   
     9     3    16 1   
    10     3    17 1   
    11     4     5 1   
    12     4    18 1   
    13     4    19 1   
    14     5     8 1   
    15     5    20 1   
    16     5    21 1   
    17     6     7 1   
    18     6     8 1   
    19     6    22 1   
    20     6    23 1   
    21     7     9 1   
    22     7    24 2   
    23     8    10 1   
    24     9    10 2   
@<TRIPOS>SUBSTRUCTURE
     1 Q9Z         1 TEMP              0 ****  ****    0 ROOT
