@<TRIPOS>MOLECULE
QA0
   51    54     1     0     0
SMALL
No Charge or Current Charge


@<TRIPOS>ATOM
      1 C13        -25.0560    13.3310    45.9020 c          1 QA0       0.720600
      2 C20        -23.2080    12.4180    41.1690 ca         1 QA0      -0.238500
      3 C21        -24.2400    13.1350    40.5340 ca         1 QA0      -0.012500
      4 C22        -23.9870    13.8120    39.3290 ca         1 QA0      -0.127500
      5 C24        -22.4280    14.5500    37.4660 cp         1 QA0      -0.015000
      6 C26        -22.8050    16.5020    36.0160 ca         1 QA0      -0.118000
      7 C28        -21.2470    14.7730    35.3190 ca         1 QA0      -0.118000
      8 C02        -21.6310    19.1900    40.4400 ca         1 QA0       0.088000
      9 C03        -21.9900    19.5890    41.7370 ca         1 QA0      -0.114500
     10 C04        -22.5360    18.6540    42.6350 ca         1 QA0      -0.107500
     11 C05        -22.7360    17.3010    42.2540 cp         1 QA0       0.041000
     12 C06        -23.3190    16.2990    43.2070 cp         1 QA0      -0.084000
     13 C07        -24.2660    16.6730    44.1890 ca         1 QA0      -0.111000
     14 C08        -24.8130    15.7350    45.0920 ca         1 QA0      -0.066600
     15 C09        -25.7680    16.2250    46.1590 c          1 QA0       0.748600
     16 C12        -24.4310    14.3690    45.0020 ca         1 QA0      -0.133600
     17 C16        -23.4830    13.9840    44.0290 ca         1 QA0       0.296000
     18 C23        -22.7020    13.7970    38.7310 cp         1 QA0      -0.023000
     19 C25        -23.0700    15.7870    37.1960 ca         1 QA0      -0.099500
     20 C27        -21.8940    15.9940    35.0760 ca         1 QA0      -0.124000
     21 C29        -21.5110    14.0590    36.5020 ca         1 QA0      -0.099500
     22 C30        -21.6800    13.0640    39.3850 ca         1 QA0      -0.127500
     23 C31        -21.9260    12.3820    40.5890 ca         1 QA0      -0.012500
     24 C33        -22.9310    14.9410    43.1630 ca         1 QA0      -0.189000
     25 C34        -22.3620    16.9260    40.9380 ca         1 QA0      -0.107500
     26 C35        -21.8160    17.8590    40.0390 ca         1 QA0      -0.114500
     27 N17        -23.0480    12.6730    43.9270 nu         1 QA0      -0.976100
     28 O10        -26.7470    16.8710    45.8080 o          1 QA0      -0.725500
     29 O11        -25.4480    16.0710    47.3310 o          1 QA0      -0.725500
     30 O14        -26.2710    13.3320    46.0330 o          1 QA0      -0.675500
     31 O15        -24.3310    12.4530    46.3560 o          1 QA0      -0.675500
     32 O19        -24.9490    11.4570    42.9830 o          1 QA0      -0.576000
     33 O32        -22.5780    10.4910    42.9370 o          1 QA0      -0.576000
     34 S18        -23.5140    11.6000    42.7410 sy         1 QA0       1.159600
     35 H211       -25.2340    13.1800    40.9740 ha         1 QA0       0.139500
     36 H221       -24.8010    14.3540    38.8550 ha         1 QA0       0.103000
     37 H261       -23.3050    17.4500    35.8320 ha         1 QA0       0.103000
     38 H281       -20.5420    14.3760    34.5920 ha         1 QA0       0.103000
     39 H031       -21.8420    20.6200    42.0480 ha         1 QA0       0.107000
     40 H041       -22.7920    18.9800    43.6390 ha         1 QA0       0.129500
     41 H071       -24.5860    17.7090    44.2600 ha         1 QA0       0.103000
     42 H251       -23.7680    16.2050    37.9170 ha         1 QA0       0.119500
     43 H271       -21.6890    16.5470    34.1620 ha         1 QA0       0.099000
     44 H291       -21.0070    13.1100    36.6660 ha         1 QA0       0.119500
     45 H301       -20.6760    13.0420    38.9690 ha         1 QA0       0.103000
     46 H311       -21.1150    11.8440    41.0780 ha         1 QA0       0.139500
     47 H331       -22.1750    14.6270    42.4520 ha         1 QA0       0.080000
     48 H341       -22.5080    15.9030    40.6050 ha         1 QA0       0.129500
     49 H351       -21.5370    17.5500    39.0350 ha         1 QA0       0.107000
     50 H171       -23.3460    12.1420    44.7440 hn         1 QA0       0.599000
     51 Cl01       -20.9480    20.3590    39.3180 cl         1 QA0      -0.265000
@<TRIPOS>BOND
     1     1    16 1   
     2     1    30 1   
     3     1    31 1   
     4     2     3 ar  
     5     2    23 ar  
     6     2    34 1   
     7     3     4 ar  
     8     3    35 1   
     9     4    18 ar  
    10     4    36 1   
    11     5    18 1   
    12     5    19 ar  
    13     5    21 ar  
    14     6    19 ar  
    15     6    20 ar  
    16     6    37 1   
    17     7    20 ar  
    18     7    21 ar  
    19     7    38 1   
    20     8     9 ar  
    21     8    26 ar  
    22     8    51 1   
    23     9    10 ar  
    24     9    39 1   
    25    10    11 ar  
    26    10    40 1   
    27    11    12 1   
    28    11    25 ar  
    29    12    13 ar  
    30    12    24 ar  
    31    13    14 ar  
    32    13    41 1   
    33    14    15 1   
    34    14    16 ar  
    35    15    28 1   
    36    15    29 1   
    37    16    17 ar  
    38    17    24 ar  
    39    17    27 1   
    40    18    22 ar  
    41    19    42 1   
    42    20    43 1   
    43    21    44 1   
    44    22    23 ar  
    45    22    45 1   
    46    23    46 1   
    47    24    47 1   
    48    25    26 ar  
    49    25    48 1   
    50    26    49 1   
    51    27    34 1   
    52    27    50 1   
    53    32    34 2   
    54    33    34 2   
@<TRIPOS>SUBSTRUCTURE
     1 QA0         1 TEMP              0 ****  ****    0 ROOT
