@<TRIPOS>MOLECULE
QA0
   51    54     1     0     0
SMALL
abcg2


@<TRIPOS>ATOM
      1 C13        -23.9260    13.0530    46.0760 c          1 QA0       0.720600
      2 C20        -23.7700    12.8910    40.5600 ca         1 QA0      -0.238500
      3 C21        -24.3470    13.6500    39.5550 ca         1 QA0      -0.012500
      4 C22        -23.5830    14.0140    38.4560 ca         1 QA0      -0.127500
      5 C24        -21.4370    14.0180    37.1770 cp         1 QA0      -0.015000
      6 C26        -20.8100    15.6460    35.5020 ca         1 QA0      -0.118000
      7 C28        -19.7440    13.4960    35.5300 ca         1 QA0      -0.118000
      8 C02        -24.1190    19.9750    40.9850 ca         1 QA0       0.088000
      9 C03        -23.3310    20.0230    42.1230 ca         1 QA0      -0.114500
     10 C04        -23.2530    18.9060    42.9400 ca         1 QA0      -0.107500
     11 C05        -23.9540    17.7370    42.6410 cp         1 QA0       0.041000
     12 C06        -23.8810    16.5510    43.5160 cp         1 QA0      -0.084000
     13 C07        -23.7920    16.6790    44.8990 ca         1 QA0      -0.111000
     14 C08        -23.7350    15.5650    45.7320 ca         1 QA0      -0.066600
     15 C09        -23.5110    15.8510    47.2140 c          1 QA0       0.748600
     16 C12        -23.8170    14.2800    45.1850 ca         1 QA0      -0.133600
     17 C16        -23.8780    14.1530    43.7830 ca         1 QA0       0.296000
     18 C23        -22.2480    13.6260    38.3470 cp         1 QA0      -0.023000
     19 C25        -21.5780    15.2800    36.5980 ca         1 QA0      -0.099500
     20 C27        -19.8910    14.7550    34.9630 ca         1 QA0      -0.124000
     21 C29        -20.5090    13.1310    36.6280 ca         1 QA0      -0.099500
     22 C30        -21.6920    12.8570    39.3740 ca         1 QA0      -0.127500
     23 C31        -22.4440    12.4850    40.4730 ca         1 QA0      -0.012500
     24 C33        -23.9040    15.2750    42.9640 ca         1 QA0      -0.189000
     25 C34        -24.7380    17.7210    41.4850 ca         1 QA0      -0.107500
     26 C35        -24.8250    18.8280    40.6570 ca         1 QA0      -0.114500
     27 N17        -23.8530    12.8580    43.2480 nu         1 QA0      -0.976100
     28 O10        -24.4320    16.4400    47.8070 o          1 QA0      -0.725500
     29 O11        -22.3840    15.5530    47.6460 o          1 QA0      -0.725500
     30 O14        -24.3270    13.2070    47.2300 o          1 QA0      -0.675500
     31 O15        -23.6270    11.9360    45.5510 o          1 QA0      -0.675500
     32 O19        -26.0140    13.0680    41.8840 o          1 QA0      -0.576000
     33 O32        -24.7200    10.9230    42.0030 o          1 QA0      -0.576000
     34 S18        -24.7330    12.3780    41.9600 sy         1 QA0       1.159600
     35 H211       -25.3800    13.9640    39.6180 ha         1 QA0       0.139500
     36 H221       -24.0470    14.5930    37.6680 ha         1 QA0       0.103000
     37 H261       -20.9260    16.6320    35.0720 ha         1 QA0       0.103000
     38 H281       -19.0370    12.7910    35.1130 ha         1 QA0       0.103000
     39 H031       -22.7750    20.9170    42.3720 ha         1 QA0       0.107000
     40 H041       -22.6180    18.9480    43.8160 ha         1 QA0       0.129500
     41 H071       -23.7800    17.6680    45.3420 ha         1 QA0       0.103000
     42 H251       -22.2750    15.9930    37.0200 ha         1 QA0       0.119500
     43 H271       -19.2930    15.0410    34.1080 ha         1 QA0       0.099000
     44 H291       -20.3960    12.1380    37.0450 ha         1 QA0       0.119500
     45 H301       -20.6520    12.5630    39.3270 ha         1 QA0       0.103000
     46 H311       -21.9860    11.9060    41.2640 ha         1 QA0       0.139500
     47 H331       -23.9000    15.1650    41.8880 ha         1 QA0       0.080000
     48 H341       -25.3120    16.8390    41.2320 ha         1 QA0       0.129500
     49 H351       -25.4450    18.7970    39.7710 ha         1 QA0       0.107000
     50 H171       -23.7340    12.1640    44.0560 hn         1 QA0       0.599000
     51 CL01       -24.2270    21.3670    39.9590 cl         1 QA0      -0.265000
@<TRIPOS>BOND
     1     1    16 1   
     2     1    30 1   
     3     1    31 1   
     4     2     3 ar  
     5     2    23 ar  
     6     2    34 1   
     7     3     4 ar  
     8     3    35 1   
     9     4    18 ar  
    10     4    36 1   
    11     5    18 1   
    12     5    19 ar  
    13     5    21 ar  
    14     6    19 ar  
    15     6    20 ar  
    16     6    37 1   
    17     7    20 ar  
    18     7    21 ar  
    19     7    38 1   
    20     8     9 ar  
    21     8    26 ar  
    22     8    51 1   
    23     9    10 ar  
    24     9    39 1   
    25    10    11 ar  
    26    10    40 1   
    27    11    12 1   
    28    11    25 ar  
    29    12    13 ar  
    30    12    24 ar  
    31    13    14 ar  
    32    13    41 1   
    33    14    15 1   
    34    14    16 ar  
    35    15    28 1   
    36    15    29 1   
    37    16    17 ar  
    38    17    24 ar  
    39    17    27 1   
    40    18    22 ar  
    41    19    42 1   
    42    20    43 1   
    43    21    44 1   
    44    22    23 ar  
    45    22    45 1   
    46    23    46 1   
    47    24    47 1   
    48    25    26 ar  
    49    25    48 1   
    50    26    49 1   
    51    27    34 1   
    52    27    50 1   
    53    32    34 2   
    54    33    34 2   
@<TRIPOS>SUBSTRUCTURE
     1 QA0         1 TEMP              0 ****  ****    0 ROOT
