@<TRIPOS>MOLECULE
QA1
   52    56     1     0     0
SMALL
No Charge or Current Charge


@<TRIPOS>ATOM
      1 CAD         10.8220    32.1080    -5.6070 c5         1 QA1      -0.061700
      2 CAE         11.4800    33.4040    -6.1730 c5         1 QA1      -0.068000
      3 CAF         11.7070    30.8370    -5.7620 c6         1 QA1      -0.044700
      4 CAG         13.0830    31.0730    -5.0510 c6         1 QA1      -0.046700
      5 CAH         14.0470    29.8020    -5.1710 c6         1 QA1      -0.004800
      6 CAI         12.8380    33.6340    -5.4330 c6         1 QA1      -0.065400
      7 CAJ         10.2940    34.4520    -5.8440 c5         1 QA1       0.270100
      8 CAK         13.7710    32.3940    -5.5450 c6         1 QA1      -0.070400
      9 CAL          9.4260    32.1230    -6.2910 c5         1 QA1      -0.069400
     10 CAM         11.0050    29.5900    -5.1650 c6         1 QA1      -0.070400
     11 CAN          9.0280    33.6440    -6.3210 c5         1 QA1      -0.065400
     12 CAO         13.2660    28.4890    -4.7390 c2         1 QA1      -0.052400
     13 CAP         11.7790    33.3680    -7.7180 c3         1 QA1      -0.077100
     14 CAQ         11.8680    28.3240    -5.3270 c6         1 QA1      -0.045200
     15 CAR         15.3230    30.0280    -4.2150 c6         1 QA1       0.013900
     16 CAS         14.5940    29.4900    -6.6270 c3         1 QA1      -0.085100
     17 CAT         10.1760    34.8150    -4.4070 c1         1 QA1      -0.174100
     18 CAU         13.8100    27.4860    -3.9780 ce         1 QA1      -0.299800
     19 CAV         15.8870    28.7530    -3.5850 cd         1 QA1      -0.228300
     20 CAW         15.1550    27.6350    -3.4860 cc         1 QA1       0.232800
     21 CAX         17.1280    28.4780    -2.9880 cd         1 QA1       0.277900
     22 CAY         10.0740    35.1560    -3.2500 c1         1 QA1      -0.229000
     23 NAC         17.1880    27.2340    -2.5290 nc         1 QA1      -0.366300
     24 OAA         10.3680    35.7250    -6.5210 oh         1 QA1      -0.641000
     25 OAB         15.8860    26.6660    -2.8480 os         1 QA1      -0.062700
     26 HAD         10.6880    32.1880    -4.5210 hc         1 QA1       0.055700
     27 HAF         11.8770    30.6540    -6.8300 hc         1 QA1       0.054700
     28 HAG         12.8630    31.2100    -3.9820 hc         1 QA1       0.048700
     29 HAI         13.3440    34.5250    -5.8280 hc         1 QA1       0.044700
     30 HAJ         12.6710    33.8300    -4.3660 hc         1 QA1       0.044700
     31 HAL         14.1180    32.2810    -6.5790 hc         1 QA1       0.041700
     32 HAK         14.6750    32.5930    -4.9540 hc         1 QA1       0.041700
     33 HAN          8.6940    31.5250    -5.7360 hc         1 QA1       0.045200
     34 HAM          9.4690    31.7030    -7.3020 hc         1 QA1       0.045200
     35 HAO         10.7900    29.7520    -4.1000 hc         1 QA1       0.046200
     36 HAP         10.0370    29.4260    -5.6580 hc         1 QA1       0.046200
     37 HAR          8.7340    33.9330    -7.3370 hc         1 QA1       0.060200
     38 HAQ          8.1520    33.8420    -5.6930 hc         1 QA1       0.060200
     39 HAS         12.4100    32.5230    -8.0110 hc         1 QA1       0.037700
     40 HAT         10.8710    33.3030    -8.3260 hc         1 QA1       0.037700
     41 HAU         12.2990    34.2800    -8.0350 hc         1 QA1       0.037700
     42 HAV         11.3540    27.4760    -4.8540 hc         1 QA1       0.053200
     43 HAW         11.9500    28.0690    -6.3920 hc         1 QA1       0.053200
     44 HAX         16.1130    30.5650    -4.7570 hc         1 QA1       0.053700
     45 HAY         15.0420    30.6960    -3.3890 hc         1 QA1       0.053700
     46 HA1         15.1950    28.5730    -6.6330 hc         1 QA1       0.040033
     47 HAZ         13.7820    29.3520    -7.3490 hc         1 QA1       0.040033
     48 HA0         15.2330    30.2960    -7.0040 hc         1 QA1       0.040033
     49 HA2         13.2860    26.5620    -3.7340 ha         1 QA1       0.202000
     50 HA3         17.9790    29.1370    -2.8680 h4         1 QA1       0.043100
     51 HA4          9.9780    35.4460    -2.2220 ha         1 QA1       0.255000
     52 HAA         10.9320    36.2880    -5.9500 ho         1 QA1       0.450000
@<TRIPOS>BOND
     1     1     2 1   
     2     1     3 1   
     3     1     9 1   
     4     1    26 1   
     5     2     6 1   
     6     2     7 1   
     7     2    13 1   
     8     3     4 1   
     9     3    10 1   
    10     3    27 1   
    11     4     5 1   
    12     4     8 1   
    13     4    28 1   
    14     5    12 1   
    15     5    15 1   
    16     5    16 1   
    17     6     8 1   
    18     6    29 1   
    19     6    30 1   
    20     7    11 1   
    21     7    17 1   
    22     7    24 1   
    23     8    31 1   
    24     8    32 1   
    25     9    11 1   
    26     9    33 1   
    27     9    34 1   
    28    10    14 1   
    29    10    35 1   
    30    10    36 1   
    31    11    37 1   
    32    11    38 1   
    33    12    14 1   
    34    12    18 2   
    35    13    39 1   
    36    13    40 1   
    37    13    41 1   
    38    14    42 1   
    39    14    43 1   
    40    15    19 1   
    41    15    44 1   
    42    15    45 1   
    43    16    46 1   
    44    16    47 1   
    45    16    48 1   
    46    17    22 3   
    47    18    20 1   
    48    18    49 1   
    49    19    20 2   
    50    19    21 1   
    51    20    25 1   
    52    21    23 2   
    53    21    50 1   
    54    22    51 1   
    55    23    25 1   
    56    24    52 1   
@<TRIPOS>SUBSTRUCTURE
     1 QA1         1 TEMP              0 ****  ****    0 ROOT
