@<TRIPOS>MOLECULE
QA1
   52    56     1     0     0
SMALL
bcc


@<TRIPOS>ATOM
      1 CAD         10.8440    32.0960    -5.5720 c5         1 QA1      -0.061700
      2 CAE         11.5150    33.3560    -6.1220 c5         1 QA1      -0.068000
      3 CAF         11.6920    30.8450    -5.7280 c6         1 QA1      -0.044700
      4 CAG         13.0330    31.0640    -5.0050 c6         1 QA1      -0.046700
      5 CAH         13.9900    29.8380    -5.0750 c6         1 QA1      -0.004800
      6 CAI         12.8030    33.5950    -5.3460 c6         1 QA1      -0.065400
      7 CAJ         10.3710    34.3920    -5.9220 c5         1 QA1       0.246900
      8 CAK         13.7230    32.3720    -5.4250 c6         1 QA1      -0.070400
      9 CAL          9.4430    32.1150    -6.1910 c5         1 QA1      -0.069400
     10 CAM         10.9920    29.6270    -5.1440 c6         1 QA1      -0.070400
     11 CAN          9.1230    33.6100    -6.4010 c5         1 QA1      -0.065400
     12 CAO         13.2300    28.5580    -4.7150 c2         1 QA1      -0.052400
     13 CAP         11.8150    33.2560    -7.6230 c3         1 QA1      -0.077100
     14 CAQ         11.8570    28.3850    -5.2900 c6         1 QA1      -0.045200
     15 CAR         15.1800    30.1130    -4.1170 c6         1 QA1       0.013900
     16 CAS         14.5400    29.6070    -6.4940 c3         1 QA1      -0.085100
     17 CAT         10.2170    34.7470    -4.5000 c1         1 QA1      -0.174100
     18 CAU         13.8020    27.5430    -4.0460 ce         1 QA1      -0.249800
     19 CAV         15.8630    28.8580    -3.7090 cd         1 QA1      -0.358900
     20 CAW         15.1710    27.6950    -3.6430 cc         1 QA1       0.342500
     21 CAX         17.1420    28.4900    -3.2450 cd         1 QA1       0.343200
     22 CAY         10.0780    35.0740    -3.3510 c1         1 QA1      -0.141500
     23 NAC         17.1980    27.2230    -2.9370 nc         1 QA1      -0.366300
     24 OAA         10.5000    35.5750    -6.6750 oh         1 QA1      -0.578800
     25 OAB         15.9500    26.7150    -3.1870 os         1 QA1      -0.107100
     26 HAD         10.7280    32.2480    -4.4890 hc         1 QA1       0.055700
     27 HAF         11.8670    30.6610    -6.7960 hc         1 QA1       0.054700
     28 HAG         12.7740    31.1770    -3.9410 hc         1 QA1       0.048700
     29 HAI         13.3380    34.4740    -5.7200 hc         1 QA1       0.044700
     30 HAJ         12.5660    33.7940    -4.2970 hc         1 QA1       0.044700
     31 HAL         14.1230    32.2830    -6.4370 hc         1 QA1       0.041700
     32 HAK         14.5830    32.5590    -4.7810 hc         1 QA1       0.041700
     33 HAN          8.7070    31.6260    -5.5520 hc         1 QA1       0.045200
     34 HAM          9.4340    31.5790    -7.1440 hc         1 QA1       0.045200
     35 HAO         10.7730    29.8070    -4.0850 hc         1 QA1       0.046200
     36 HAP         10.0330    29.4550    -5.6380 hc         1 QA1       0.046200
     37 HAR          8.9610    33.8350    -7.4570 hc         1 QA1       0.060200
     38 HAQ          8.2250    33.9280    -5.8710 hc         1 QA1       0.060200
     39 HAS         12.5140    32.4490    -7.8380 hc         1 QA1       0.037700
     40 HAT         10.9250    33.0750    -8.2260 hc         1 QA1       0.037700
     41 HAU         12.2740    34.1760    -7.9850 hc         1 QA1       0.037700
     42 HAV         11.3760    27.5150    -4.8390 hc         1 QA1       0.053200
     43 HAW         11.9570    28.1590    -6.3580 hc         1 QA1       0.053200
     44 HAX         15.8790    30.8000    -4.5970 hc         1 QA1       0.053700
     45 HAY         14.8140    30.6250    -3.2190 hc         1 QA1       0.053700
     46 HA1         15.1840    28.7260    -6.5160 hc         1 QA1       0.040033
     47 HAZ         13.7440    29.4560    -7.2250 hc         1 QA1       0.040033
     48 HA0         15.1370    30.4560    -6.8270 hc         1 QA1       0.040033
     49 HA2         13.2720    26.6160    -3.8600 ha         1 QA1       0.152000
     50 HA3         18.0240    29.1020    -3.1230 h4         1 QA1       0.043100
     51 HA4          9.9690    35.3600    -2.3300 ha         1 QA1       0.167500
     52 HAA         11.2870    36.0450    -6.3800 ho         1 QA1       0.411000
@<TRIPOS>BOND
     1     1     2 1   
     2     1     3 1   
     3     1     9 1   
     4     1    26 1   
     5     2     6 1   
     6     2     7 1   
     7     2    13 1   
     8     3     4 1   
     9     3    10 1   
    10     3    27 1   
    11     4     5 1   
    12     4     8 1   
    13     4    28 1   
    14     5    12 1   
    15     5    15 1   
    16     5    16 1   
    17     6     8 1   
    18     6    29 1   
    19     6    30 1   
    20     7    11 1   
    21     7    17 1   
    22     7    24 1   
    23     8    31 1   
    24     8    32 1   
    25     9    11 1   
    26     9    33 1   
    27     9    34 1   
    28    10    14 1   
    29    10    35 1   
    30    10    36 1   
    31    11    37 1   
    32    11    38 1   
    33    12    14 1   
    34    12    18 2   
    35    13    39 1   
    36    13    40 1   
    37    13    41 1   
    38    14    42 1   
    39    14    43 1   
    40    15    19 1   
    41    15    44 1   
    42    15    45 1   
    43    16    46 1   
    44    16    47 1   
    45    16    48 1   
    46    17    22 3   
    47    18    20 1   
    48    18    49 1   
    49    19    20 2   
    50    19    21 1   
    51    20    25 1   
    52    21    23 2   
    53    21    50 1   
    54    22    51 1   
    55    23    25 1   
    56    24    52 1   
@<TRIPOS>SUBSTRUCTURE
     1 QA1         1 TEMP              0 ****  ****    0 ROOT
