@<TRIPOS>MOLECULE
QA2
   50    53     1     0     0
SMALL
abcg2


@<TRIPOS>ATOM
      1 C2         -33.8650    -1.9290    15.7940 c5         1 QA2       0.129300
      2 C1         -34.5440     0.0310    14.6450 c5         1 QA2       0.137300
      3 O1         -35.1870     1.2840    14.6330 oh         1 QA2      -0.675000
      4 N          -32.1810     0.6660    14.1410 na         1 QA2      -0.296300
      5 C          -35.0900    -1.0260    15.6120 c5         1 QA2       0.110300
      6 O          -35.4620    -0.3770    16.8220 oh         1 QA2      -0.694000
      7 C10        -28.9110     2.3240    10.6020 c3         1 QA2       0.229800
      8 C11        -29.9760     2.7000     9.5600 c3         1 QA2      -0.048100
      9 C12        -29.8700     1.8430     8.3270 ca         1 QA2      -0.123300
     10 C13        -29.0000     2.1770     7.2870 ca         1 QA2      -0.066000
     11 C14        -28.8600     1.3670     6.1680 ca         1 QA2      -0.173500
     12 C15        -29.5940     0.1800     6.0500 ca         1 QA2       0.281000
     13 C16        -30.4690    -0.1610     7.0890 ca         1 QA2      -0.173500
     14 C17        -30.5980     0.6580     8.2030 ca         1 QA2      -0.066000
     15 C3         -33.7910    -3.0950    14.8220 c3         1 QA2       0.144600
     16 C4         -33.1090     0.2000    15.1440 c5         1 QA2       0.314300
     17 C5         -31.8480     0.0430    12.9580 cc         1 QA2       0.407700
     18 C6         -30.6750     1.8340    13.0200 ca         1 QA2      -0.091600
     19 C7         -31.4330     1.8210    14.1950 ca         1 QA2       0.149500
     20 C8         -30.5930     3.7450    14.8800 ca         1 QA2       0.180900
     21 C9         -29.8170     2.9430    12.8440 ca         1 QA2       0.443900
     22 N1         -30.9570     0.7020    12.2650 nd         1 QA2      -0.553100
     23 N2         -31.4300     2.7470    15.1590 nb         1 QA2      -0.215000
     24 N3         -29.8150     3.8920    13.8090 nb         1 QA2      -0.304000
     25 N4         -28.9820     3.1320    11.8090 nu         1 QA2      -0.912100
     26 N5         -29.4160    -0.6660     4.9570 nv         1 QA2      -1.070000
     27 O2         -34.7880    -4.0370    15.2130 oh         1 QA2      -0.730000
     28 O3         -32.7080    -1.0820    15.5970 os         1 QA2      -0.456000
     29 H1         -33.8340    -2.3150    16.8150 h1         1 QA2       0.089700
     30 H2         -34.5240    -0.4050    13.6420 h1         1 QA2       0.040700
     31 H3         -36.0050     1.2100    14.1260 ho         1 QA2       0.511000
     32 H4         -35.9330    -1.5770    15.1880 h1         1 QA2       0.064700
     33 H5         -35.7670    -1.0520    17.4420 ho         1 QA2       0.509000
     34 H6         -29.0180     1.2750    10.8710 h1         1 QA2       0.068700
     35 H7         -27.9160     2.4620    10.1780 h1         1 QA2       0.068700
     36 H8         -29.8560     3.7550     9.3030 hc         1 QA2       0.053200
     37 H9         -30.9610     2.5830    10.0150 hc         1 QA2       0.053200
     38 H10        -28.4240     3.0930     7.3500 ha         1 QA2       0.112500
     39 H11        -28.1820     1.6540     5.3720 ha         1 QA2       0.110500
     40 H12        -31.0510    -1.0720     7.0160 ha         1 QA2       0.110500
     41 H13        -31.2830     0.3720     8.9930 ha         1 QA2       0.112500
     42 H14        -33.9550    -2.7500    13.7960 h1         1 QA2       0.036700
     43 H15        -32.7890    -3.5330    14.8790 h1         1 QA2       0.036700
     44 H16        -33.0790     0.9330    15.9530 h2         1 QA2       0.130700
     45 H17        -32.2910    -0.8980    12.6750 h5         1 QA2       0.060800
     46 H18        -30.5360     4.5420    15.6160 h5         1 QA2       0.048100
     47 H19        -28.4990     4.0180    11.8110 hn         1 QA2       0.500000
     48 H20        -30.1950    -1.2770     4.7590 hn         1 QA2       0.443000
     49 H21        -29.0760    -0.2140     4.1200 hn         1 QA2       0.443000
     50 H22        -34.8620    -4.7080    14.5240 ho         1 QA2       0.512000
@<TRIPOS>BOND
     1     1     5 1   
     2     1    15 1   
     3     1    28 1   
     4     1    29 1   
     5     2     3 1   
     6     2     5 1   
     7     2    16 1   
     8     2    30 1   
     9     3    31 1   
    10     4    16 1   
    11     4    17 1   
    12     4    19 1   
    13     5     6 1   
    14     5    32 1   
    15     6    33 1   
    16     7     8 1   
    17     7    25 1   
    18     7    34 1   
    19     7    35 1   
    20     8     9 1   
    21     8    36 1   
    22     8    37 1   
    23     9    10 ar  
    24     9    14 ar  
    25    10    11 ar  
    26    10    38 1   
    27    11    12 ar  
    28    11    39 1   
    29    12    13 ar  
    30    12    26 1   
    31    13    14 ar  
    32    13    40 1   
    33    14    41 1   
    34    15    27 1   
    35    15    42 1   
    36    15    43 1   
    37    16    28 1   
    38    16    44 1   
    39    17    22 2   
    40    17    45 1   
    41    18    19 ar  
    42    18    21 ar  
    43    18    22 1   
    44    19    23 ar  
    45    20    23 ar  
    46    20    24 ar  
    47    20    46 1   
    48    21    24 ar  
    49    21    25 1   
    50    25    47 1   
    51    26    48 1   
    52    26    49 1   
    53    27    50 1   
@<TRIPOS>SUBSTRUCTURE
     1 QA2         1 TEMP              0 ****  ****    0 ROOT
