@<TRIPOS>MOLECULE
QA2
   50    53     1     0     0
SMALL
No Charge or Current Charge


@<TRIPOS>ATOM
      1 C2         -34.0050    -1.4610    16.1360 c5         1 QA2       0.129300
      2 C1         -34.8560    -0.3660    14.1950 c5         1 QA2       0.137300
      3 O1         -35.8990     0.4490    13.6480 oh         1 QA2      -0.675000
      4 N          -32.4720     0.6830    13.9450 na         1 QA2      -0.296300
      5 C          -35.3720    -1.1080    15.4600 c5         1 QA2       0.110300
      6 O          -36.1950    -0.2340    16.2620 oh         1 QA2      -0.694000
      7 C10        -28.6180     1.8180    10.6810 c3         1 QA2       0.229800
      8 C11        -29.6430     2.5020     9.7500 c3         1 QA2      -0.048100
      9 C12        -29.7040     1.8390     8.3790 ca         1 QA2      -0.123300
     10 C13        -29.0150     2.3950     7.2840 ca         1 QA2      -0.066000
     11 C14        -29.0730     1.7730     6.0240 ca         1 QA2      -0.173500
     12 C15        -29.8150     0.5960     5.8510 ca         1 QA2       0.281000
     13 C16        -30.5010     0.0380     6.9390 ca         1 QA2      -0.173500
     14 C17        -30.4470     0.6560     8.2020 ca         1 QA2      -0.066000
     15 C3         -33.2280    -2.6500    15.4920 c3         1 QA2       0.144600
     16 C4         -33.6450     0.4500    14.7930 c5         1 QA2       0.314300
     17 C5         -32.0870    -0.0670    12.8310 cc         1 QA2       0.407700
     18 C6         -30.6610     1.5400    13.0640 ca         1 QA2      -0.091600
     19 C7         -31.5660     1.6950    14.0870 ca         1 QA2       0.149500
     20 C8         -30.4230     3.5230    14.8400 ca         1 QA2       0.180900
     21 C9         -29.5930     2.4730    12.9720 ca         1 QA2       0.443900
     22 N1         -30.9730     0.4310    12.2660 nd         1 QA2      -0.553100
     23 N2         -31.4730     2.6860    14.9940 nb         1 QA2      -0.215000
     24 N3         -29.4750     3.4630    13.8750 nb         1 QA2      -0.304000
     25 N4         -28.5850     2.4610    12.0090 nu         1 QA2      -0.912100
     26 N5         -29.8700    -0.0060     4.6240 nv         1 QA2      -1.070000
     27 O2         -33.9890    -3.8680    15.5740 oh         1 QA2      -0.730000
     28 O3         -33.2310    -0.2450    15.9980 os         1 QA2      -0.456000
     29 H1         -34.1300    -1.6840    17.2040 h1         1 QA2       0.089700
     30 H2         -34.5210    -1.0940    13.4460 h1         1 QA2       0.040700
     31 H3         -36.4960     0.6050    14.4230 ho         1 QA2       0.511000
     32 H4         -35.9300    -2.0150    15.1880 h1         1 QA2       0.064700
     33 H5         -36.4540    -0.7330    17.0740 ho         1 QA2       0.509000
     34 H6         -28.8540     0.7490    10.7720 h1         1 QA2       0.068700
     35 H7         -27.6270     1.8860    10.2110 h1         1 QA2       0.068700
     36 H8         -29.3820     3.5630     9.6490 hc         1 QA2       0.053200
     37 H9         -30.6350     2.4750    10.2160 hc         1 QA2       0.053200
     38 H10        -28.4350     3.3070     7.4070 ha         1 QA2       0.112500
     39 H11        -28.5380     2.2100     5.1850 ha         1 QA2       0.110500
     40 H12        -31.0770    -0.8750     6.8130 ha         1 QA2       0.110500
     41 H13        -30.9810     0.2150     9.0410 ha         1 QA2       0.112500
     42 H14        -32.9910    -2.4200    14.4450 h1         1 QA2       0.036700
     43 H15        -32.2740    -2.7640    16.0250 h1         1 QA2       0.036700
     44 H16        -34.0050     1.4470    15.0780 h2         1 QA2       0.130700
     45 H17        -32.6290    -0.9390    12.4890 h5         1 QA2       0.060800
     46 H18        -30.3290     4.3270    15.5670 h5         1 QA2       0.048100
     47 H19        -27.8830     3.1890    12.1450 hn         1 QA2       0.500000
     48 H20        -30.5150    -0.7780     4.4660 hn         1 QA2       0.443000
     49 H21        -29.4890     0.4680     3.8070 hn         1 QA2       0.443000
     50 H22        -33.4180    -4.5940    15.2250 ho         1 QA2       0.512000
@<TRIPOS>BOND
     1     1     5 1   
     2     1    15 1   
     3     1    28 1   
     4     1    29 1   
     5     2     3 1   
     6     2     5 1   
     7     2    16 1   
     8     2    30 1   
     9     3    31 1   
    10     4    16 1   
    11     4    17 1   
    12     4    19 1   
    13     5     6 1   
    14     5    32 1   
    15     6    33 1   
    16     7     8 1   
    17     7    25 1   
    18     7    34 1   
    19     7    35 1   
    20     8     9 1   
    21     8    36 1   
    22     8    37 1   
    23     9    10 ar  
    24     9    14 ar  
    25    10    11 ar  
    26    10    38 1   
    27    11    12 ar  
    28    11    39 1   
    29    12    13 ar  
    30    12    26 1   
    31    13    14 ar  
    32    13    40 1   
    33    14    41 1   
    34    15    27 1   
    35    15    42 1   
    36    15    43 1   
    37    16    28 1   
    38    16    44 1   
    39    17    22 2   
    40    17    45 1   
    41    18    19 ar  
    42    18    21 ar  
    43    18    22 1   
    44    19    23 ar  
    45    20    23 ar  
    46    20    24 ar  
    47    20    46 1   
    48    21    24 ar  
    49    21    25 1   
    50    25    47 1   
    51    26    48 1   
    52    26    49 1   
    53    27    50 1   
@<TRIPOS>SUBSTRUCTURE
     1 QA2         1 TEMP              0 ****  ****    0 ROOT
