@<TRIPOS>MOLECULE
QA3
   50    53     1     0     0
SMALL
abcg2


@<TRIPOS>ATOM
      1 C10        -20.1410    72.2480    16.3230 ca         1 QA3      -0.156600
      2 C13        -19.8300    72.2490    14.8300 c          1 QA3       0.718600
      3 C15        -23.3920    70.2490    16.0680 ca         1 QA3      -0.001000
      4 C17        -22.9550    68.7630    14.2070 cp         1 QA3       0.002000
      5 C20        -22.7110    67.4070    13.6790 cp         1 QA3      -0.027000
      6 C21        -21.8140    67.2020    12.6290 ca         1 QA3      -0.095000
      7 C22        -21.5940    65.9290    12.1250 ca         1 QA3      -0.118500
      8 C24        -23.1600    65.0310    13.7070 ca         1 QA3      -0.118500
      9 N          -22.1450    73.5820    15.9990 nu         1 QA3      -0.870100
     10 C          -23.3790    66.3040    14.2120 ca         1 QA3      -0.095000
     11 O          -24.2820    73.7600    14.7510 o          1 QA3      -0.566000
     12 C01        -21.3020    71.9410    23.3010 ca         1 QA3       0.153000
     13 C02        -21.3110    73.1930    22.7120 ca         1 QA3      -0.214000
     14 C03        -21.0920    73.3100    21.3420 ca         1 QA3       0.161100
     15 C04        -20.8690    72.1670    20.5600 cp         1 QA3      -0.033000
     16 C05        -20.8610    70.9300    21.1990 ca         1 QA3      -0.067000
     17 C06        -21.0760    70.7930    22.5610 ca         1 QA3      -0.148000
     18 C07        -20.6160    72.2360    19.1050 cp         1 QA3      -0.054000
     19 C08        -21.4780    72.9070    18.2420 ca         1 QA3      -0.094000
     20 C09        -21.2560    72.9010    16.8690 ca         1 QA3       0.243000
     21 C11        -19.2820    71.5950    17.2010 ca         1 QA3      -0.080000
     22 C12        -19.5110    71.5790    18.5650 ca         1 QA3      -0.129000
     23 C14        -23.4380    71.3220    15.1890 ca         1 QA3      -0.287500
     24 C16        -23.1510    68.9780    15.5720 ca         1 QA3      -0.121500
     25 C18        -23.0060    69.8610    13.3460 ca         1 QA3      -0.121500
     26 C19        -23.2400    71.1350    13.8280 ca         1 QA3      -0.001000
     27 C23        -22.2670    64.8390    12.6610 ca         1 QA3      -0.118000
     28 O01        -18.9720    71.4580    14.4280 o          1 QA3      -0.694000
     29 O02        -20.4700    73.0730    14.1200 o          1 QA3      -0.694000
     30 O04        -24.3130    72.8780    17.1030 o          1 QA3      -0.566000
     31 S          -23.6690    72.9670    15.8030 sy         1 QA3       1.126600
     32 H1         -23.5390    70.3910    17.1300 ha         1 QA3       0.137000
     33 H2         -21.2680    68.0390    12.2130 ha         1 QA3       0.121500
     34 H3         -20.8900    65.7880    11.3140 ha         1 QA3       0.105500
     35 H4         -23.6950    64.1890    14.1260 ha         1 QA3       0.105500
     36 H5         -21.6490    73.6300    15.0680 hn         1 QA3       0.564000
     37 H6         -24.0950    66.4410    15.0130 ha         1 QA3       0.121500
     38 H7         -21.4770    74.0790    23.3140 ha         1 QA3       0.120000
     39 H8         -20.6940    70.0390    20.6060 ha         1 QA3       0.125000
     40 H9         -21.0730    69.8180    23.0260 ha         1 QA3       0.124000
     41 H10        -22.3360    73.4330    18.6350 ha         1 QA3       0.135000
     42 H11        -18.4130    71.0870    16.8030 ha         1 QA3       0.132000
     43 H12        -18.8170    71.0650    19.2190 ha         1 QA3       0.096000
     44 H13        -23.1000    68.1480    16.2650 ha         1 QA3       0.108500
     45 H14        -22.8820    69.7200    12.2800 ha         1 QA3       0.108500
     46 H15        -23.2820    71.9680    13.1390 ha         1 QA3       0.137000
     47 H16        -22.0970    63.8460    12.2660 ha         1 QA3       0.102000
     48 H18        -21.2250    75.2190    21.3670 ho         1 QA3       0.458000
     49 CL         -21.5750    71.8160    25.0070 cl         1 QA3      -0.228000
     50 O03        -21.0650    74.5080    20.7340 oh         1 QA3      -0.508100
@<TRIPOS>BOND
     1     1     2 1   
     2     1    20 ar  
     3     1    21 ar  
     4     2    28 1   
     5     2    29 1   
     6     3    23 ar  
     7     3    24 ar  
     8     3    32 1   
     9     4     5 1   
    10     4    24 ar  
    11     4    25 ar  
    12     5     6 ar  
    13     5    10 ar  
    14     6     7 ar  
    15     6    33 1   
    16     7    27 ar  
    17     7    34 1   
    18     8    10 ar  
    19     8    27 ar  
    20     8    35 1   
    21     9    20 1   
    22     9    31 1   
    23     9    36 1   
    24    10    37 1   
    25    11    31 2   
    26    12    13 ar  
    27    12    17 ar  
    28    12    49 1   
    29    13    14 ar  
    30    13    38 1   
    31    14    15 ar  
    32    14    50 1   
    33    15    16 ar  
    34    15    18 1   
    35    16    17 ar  
    36    16    39 1   
    37    17    40 1   
    38    18    19 ar  
    39    18    22 ar  
    40    19    20 ar  
    41    19    41 1   
    42    21    22 ar  
    43    21    42 1   
    44    22    43 1   
    45    23    26 ar  
    46    23    31 1   
    47    24    44 1   
    48    25    26 ar  
    49    25    45 1   
    50    26    46 1   
    51    27    47 1   
    52    30    31 2   
    53    48    50 1   
@<TRIPOS>SUBSTRUCTURE
     1 QA3         1 TEMP              0 ****  ****    0 ROOT
