@<TRIPOS>MOLECULE
QA3
   50    53     1     0     0
SMALL
No Charge or Current Charge


@<TRIPOS>ATOM
      1 C10        -19.6880    73.2900    15.9950 ca         1 QA3      -0.156600
      2 C13        -19.2410    73.8570    14.6570 c          1 QA3       0.718600
      3 C15        -23.7340    70.8420    16.1550 ca         1 QA3      -0.001000
      4 C17        -23.0720    68.9260    14.7610 cp         1 QA3       0.002000
      5 C20        -22.9050    67.4490    14.5730 cp         1 QA3      -0.027000
      6 C21        -21.8270    66.9230    13.8160 ca         1 QA3      -0.095000
      7 C22        -21.6690    65.5370    13.6400 ca         1 QA3      -0.118500
      8 C24        -23.6630    65.1430    14.9700 ca         1 QA3      -0.118500
      9 N          -21.9880    74.0300    15.6840 nu         1 QA3      -0.870100
     10 C          -23.8200    66.5290    15.1460 ca         1 QA3      -0.095000
     11 O          -23.8100    74.1550    14.0770 o          1 QA3      -0.566000
     12 C01        -21.5160    70.3670    22.3070 ca         1 QA3       0.153000
     13 C02        -21.9070    71.6870    22.0460 ca         1 QA3      -0.214000
     14 C03        -21.5620    72.2990    20.8290 ca         1 QA3       0.161100
     15 C04        -20.8150    71.5870    19.8460 cp         1 QA3      -0.033000
     16 C05        -20.4270    70.2560    20.1400 ca         1 QA3      -0.067000
     17 C06        -20.7760    69.6500    21.3580 ca         1 QA3      -0.148000
     18 C07        -20.4280    72.1900    18.5310 cp         1 QA3      -0.054000
     19 C08        -21.3690    72.8630    17.7190 ca         1 QA3      -0.094000
     20 C09        -21.0230    73.4000    16.4630 ca         1 QA3       0.243000
     21 C11        -18.7420    72.6170    16.8050 ca         1 QA3      -0.080000
     22 C12        -19.1090    72.0700    18.0430 ca         1 QA3      -0.129000
     23 C14        -23.3830    71.7320    15.1220 ca         1 QA3      -0.287500
     24 C16        -23.5800    69.4580    15.9730 ca         1 QA3      -0.121500
     25 C18        -22.7230    69.8410    13.7360 ca         1 QA3      -0.121500
     26 C19        -22.8740    71.2270    13.9100 ca         1 QA3      -0.001000
     27 C23        -22.5880    64.6460    14.2170 ca         1 QA3      -0.118000
     28 O01        -18.0470    74.0500    14.4810 o          1 QA3      -0.694000
     29 O02        -20.0820    74.0980    13.7990 o          1 QA3      -0.694000
     30 O04        -24.3000    73.8100    16.5730 o          1 QA3      -0.566000
     31 S          -23.5380    73.5040    15.3590 sy         1 QA3       1.126600
     32 H1         -24.1190    71.2150    17.1030 ha         1 QA3       0.137000
     33 H2         -21.0960    67.5950    13.3720 ha         1 QA3       0.121500
     34 H3         -20.8330    65.1550    13.0590 ha         1 QA3       0.105500
     35 H4         -24.3780    64.4540    15.4160 ha         1 QA3       0.105500
     36 H5         -21.6390    74.2480    14.7500 hn         1 QA3       0.564000
     37 H6         -24.6670    66.8920    15.7220 ha         1 QA3       0.121500
     38 H7         -22.4740    72.2310    22.7970 ha         1 QA3       0.120000
     39 H8         -19.8590    69.6860    19.4080 ha         1 QA3       0.125000
     40 H9         -20.4740    68.6260    21.5650 ha         1 QA3       0.124000
     41 H10        -22.3880    72.9560    18.0780 ha         1 QA3       0.135000
     42 H11        -17.7130    72.5070    16.4700 ha         1 QA3       0.132000
     43 H12        -18.3580    71.5570    18.6390 ha         1 QA3       0.096000
     44 H13        -23.8440    68.7920    16.7890 ha         1 QA3       0.108500
     45 H14        -22.3400    69.4730    12.7880 ha         1 QA3       0.108500
     46 H15        -22.5910    71.9020    13.1040 ha         1 QA3       0.137000
     47 H16        -22.4670    63.5740    14.0810 ha         1 QA3       0.102000
     48 H18        -22.4190    73.9050    21.4290 ho         1 QA3       0.458000
     49 Cl         -21.9530    69.6110    23.8330 cl         1 QA3      -0.228000
     50 O03        -21.9380    73.5980    20.6320 oh         1 QA3      -0.508100
@<TRIPOS>BOND
     1     1     2 1   
     2     1    20 ar  
     3     1    21 ar  
     4     2    28 1   
     5     2    29 1   
     6     3    23 ar  
     7     3    24 ar  
     8     3    32 1   
     9     4     5 1   
    10     4    24 ar  
    11     4    25 ar  
    12     5     6 ar  
    13     5    10 ar  
    14     6     7 ar  
    15     6    33 1   
    16     7    27 ar  
    17     7    34 1   
    18     8    10 ar  
    19     8    27 ar  
    20     8    35 1   
    21     9    20 1   
    22     9    31 1   
    23     9    36 1   
    24    10    37 1   
    25    11    31 2   
    26    12    13 ar  
    27    12    17 ar  
    28    12    49 1   
    29    13    14 ar  
    30    13    38 1   
    31    14    15 ar  
    32    14    50 1   
    33    15    16 ar  
    34    15    18 1   
    35    16    17 ar  
    36    16    39 1   
    37    17    40 1   
    38    18    19 ar  
    39    18    22 ar  
    40    19    20 ar  
    41    19    41 1   
    42    21    22 ar  
    43    21    42 1   
    44    22    43 1   
    45    23    26 ar  
    46    23    31 1   
    47    24    44 1   
    48    25    26 ar  
    49    25    45 1   
    50    26    46 1   
    51    27    47 1   
    52    30    31 2   
    53    48    50 1   
@<TRIPOS>SUBSTRUCTURE
     1 QA3         1 TEMP              0 ****  ****    0 ROOT
