@<TRIPOS>MOLECULE
QA4
   56    60     1     0     0
SMALL
No Charge or Current Charge


@<TRIPOS>ATOM
      1 N12        -74.0860   178.6240    45.0800 ns         1 QA4      -0.469400
      2 C13        -75.4040   178.9040    45.3480 c          1 QA4       0.608100
      3 C15        -76.6350   177.2690    46.8330 cx         1 QA4      -0.127700
      4 C17        -76.6120   176.3960    48.0660 cx         1 QA4      -0.126900
      5 C20        -66.4440   179.2050    40.4790 cc         1 QA4       0.707300
      6 C26        -60.5480   177.5740    41.1540 c3         1 QA4      -0.126400
      7 C28        -60.6930   175.6890    39.3070 cx         1 QA4      -0.129900
      8 C01        -69.9600   180.6320    40.6050 c6         1 QA4      -0.117400
      9 C02        -68.4920   180.5970    40.1290 c6         1 QA4       0.233800
     10 C04        -68.7060   178.1630    40.8530 c6         1 QA4       0.233800
     11 C05        -69.9940   178.1160    39.9960 c6         1 QA4      -0.117400
     12 C06        -70.7590   179.4700    39.9650 c6         1 QA4       0.185300
     13 C08        -72.4210   179.1340    41.7960 cc         1 QA4       0.606700
     14 C11        -73.3900   178.7710    43.9040 cc         1 QA4       0.493300
     15 C14        -75.8490   178.5800    46.7810 c3         1 QA4      -0.117400
     16 C16        -75.9190   175.9370    46.8050 cx         1 QA4      -0.126900
     17 C23        -64.1590   178.6380    40.7300 cc         1 QA4       0.507300
     18 C25        -61.6790   178.5310    40.7550 c          1 QA4       0.611100
     19 C27        -59.9710   176.8630    39.9300 cx         1 QA4      -0.111700
     20 C29        -59.3900   175.4720    40.0400 cx         1 QA4      -0.129900
     21 N03        -67.8220   179.2990    40.4490 nh         1 QA4      -0.777300
     22 N09        -71.5360   178.6200    42.6370 nd         1 QA4      -0.414000
     23 N10        -72.1090   178.4210    43.8810 nd         1 QA4      -0.369000
     24 N21        -65.6490   180.1690    40.0450 nd         1 QA4      -0.431000
     25 N22        -64.3140   179.8370    40.1900 nd         1 QA4      -0.275000
     26 N24        -62.9450   178.0470    40.9910 ns         1 QA4      -0.493400
     27 O07        -72.1150   179.3780    40.4740 os         1 QA4      -0.438300
     28 O18        -76.1780   179.3600    44.5210 o          1 QA4      -0.568100
     29 O30        -61.4510   179.6230    40.2540 o          1 QA4      -0.546100
     30 S19        -74.0210   179.3790    42.3930 ss         1 QA4      -0.151800
     31 S31        -65.6290   177.8090    41.1100 ss         1 QA4      -0.378800
     32 H1         -73.5640   178.2470    45.8570 hn         1 QA4       0.345500
     33 H2         -77.5770   177.3240    46.2890 hc         1 QA4       0.098700
     34 H3         -75.9890   176.7030    48.9030 hc         1 QA4       0.074700
     35 H4         -77.5350   175.8950    48.3490 hc         1 QA4       0.074700
     36 H5         -59.7490   178.1530    41.6320 hc         1 QA4       0.062200
     37 H6         -60.9280   176.8250    41.8590 hc         1 QA4       0.062200
     38 H8         -60.6840   175.6070    38.2230 hc         1 QA4       0.071700
     39 H9         -69.9810   180.5810    41.7010 hc         1 QA4       0.070700
     40 H10        -70.4150   181.5920    40.3290 hc         1 QA4       0.070700
     41 H11        -67.9550   181.4320    40.6050 h1         1 QA4       0.066200
     42 H12        -68.4590   180.7740    39.0440 h1         1 QA4       0.066200
     43 H13        -68.1970   177.1950    40.7380 h1         1 QA4       0.066200
     44 H14        -68.9680   178.2560    41.9170 h1         1 QA4       0.066200
     45 H15        -70.6460   177.3030    40.3430 hc         1 QA4       0.070700
     46 H16        -69.7110   177.8490    38.9690 hc         1 QA4       0.070700
     47 H17        -70.8610   179.7250    38.8990 h1         1 QA4       0.083700
     48 H18        -74.9710   178.5000    47.4330 hc         1 QA4       0.071200
     49 H19        -76.4950   179.3910    47.1380 hc         1 QA4       0.071200
     50 H20        -76.3770   175.1280    46.2410 hc         1 QA4       0.074700
     51 H21        -74.8320   175.9350    46.7990 hc         1 QA4       0.074700
     52 H22        -59.4770   177.5480    39.2420 hc         1 QA4       0.097700
     53 H23        -58.5060   175.2440    39.4470 hc         1 QA4       0.071700
     54 H24        -59.4290   174.9730    41.0060 hc         1 QA4       0.071700
     55 H25        -62.9740   177.1260    41.4040 hn         1 QA4       0.330500
     56 H7         -61.6040   175.3320    39.7820 hc         1 QA4       0.071700
@<TRIPOS>BOND
     1     1     2 1   
     2     1    14 1   
     3     1    32 1   
     4     2    15 1   
     5     2    28 2   
     6     3     4 1   
     7     3    15 1   
     8     3    16 1   
     9     3    33 1   
    10     4    16 1   
    11     4    34 1   
    12     4    35 1   
    13     5    21 1   
    14     5    24 2   
    15     5    31 1   
    16     6    18 1   
    17     6    19 1   
    18     6    36 1   
    19     6    37 1   
    20     7    19 1   
    21     7    20 1   
    22     7    38 1   
    23     7    56 1   
    24     8     9 1   
    25     8    12 1   
    26     8    39 1   
    27     8    40 1   
    28     9    21 1   
    29     9    41 1   
    30     9    42 1   
    31    10    11 1   
    32    10    21 1   
    33    10    43 1   
    34    10    44 1   
    35    11    12 1   
    36    11    45 1   
    37    11    46 1   
    38    12    27 1   
    39    12    47 1   
    40    13    22 2   
    41    13    27 1   
    42    13    30 1   
    43    14    23 2   
    44    14    30 1   
    45    15    48 1   
    46    15    49 1   
    47    16    50 1   
    48    16    51 1   
    49    17    25 2   
    50    17    26 1   
    51    17    31 1   
    52    18    26 1   
    53    18    29 2   
    54    19    20 1   
    55    19    52 1   
    56    20    53 1   
    57    20    54 1   
    58    22    23 1   
    59    24    25 1   
    60    26    55 1   
@<TRIPOS>SUBSTRUCTURE
     1 QA4         1 TEMP              0 ****  ****    0 ROOT
