@<TRIPOS>MOLECULE
QA4
   56    60     1     0     0
SMALL
abcg2


@<TRIPOS>ATOM
      1 N12        -74.0910   178.7060    45.2080 ns         1 QA4      -0.469400
      2 C13        -75.4510   178.6720    45.1450 c          1 QA4       0.608100
      3 C15        -76.8340   177.0420    46.3800 cx         1 QA4      -0.127700
      4 C17        -77.0410   176.2570    47.6360 cx         1 QA4      -0.126900
      5 C20        -66.4070   179.4720    40.8120 cc         1 QA4       0.707300
      6 C26        -60.6990   177.5080    40.3730 c3         1 QA4      -0.126400
      7 C28        -60.5440   175.0640    39.5200 cx         1 QA4      -0.129900
      8 C01        -69.8520   180.7630    40.8080 c6         1 QA4      -0.117400
      9 C02        -68.4040   180.7220    40.3500 c6         1 QA4       0.233800
     10 C04        -68.5540   178.4800    41.4580 c6         1 QA4       0.233800
     11 C05        -69.7770   178.2370    40.5880 c6         1 QA4      -0.117400
     12 C06        -70.5800   179.5200    40.3170 c6         1 QA4       0.185300
     13 C08        -72.2080   179.2600    42.0600 cc         1 QA4       0.606700
     14 C11        -73.2780   178.8990    44.1200 cc         1 QA4       0.493300
     15 C14        -76.1580   178.3930    46.4440 c3         1 QA4      -0.117400
     16 C16        -76.0320   175.8010    46.6240 cx         1 QA4      -0.126900
     17 C23        -64.0680   179.0210    40.9080 cc         1 QA4       0.507300
     18 C25        -62.0830   177.9910    40.0080 c          1 QA4       0.611100
     19 C27        -60.1600   176.5040    39.3910 cx         1 QA4      -0.111700
     20 C29        -59.1480   175.5020    39.8510 cx         1 QA4      -0.129900
     21 N03        -67.7370   179.5420    40.8920 nh         1 QA4      -0.777300
     22 N09        -71.3750   179.1140    43.0280 nd         1 QA4      -0.414000
     23 N10        -71.9950   178.9060    44.2190 nd         1 QA4      -0.369000
     24 N21        -65.6670   180.3790    40.2210 nd         1 QA4      -0.431000
     25 N22        -64.3510   180.1090    40.2930 nd         1 QA4      -0.275000
     26 N24        -62.7920   178.5080    41.0590 ns         1 QA4      -0.493400
     27 O07        -71.9430   179.4670    40.7900 os         1 QA4      -0.438300
     28 O18        -76.0330   178.8280    44.0870 o          1 QA4      -0.568100
     29 O30        -62.5310   177.9590    38.8820 o          1 QA4      -0.546100
     30 S19        -73.8870   179.1520    42.5170 ss         1 QA4      -0.151800
     31 S31        -65.4750   178.1730    41.5050 ss         1 QA4      -0.378800
     32 H1         -73.6210   178.5760    46.0930 hn         1 QA4       0.345500
     33 H2         -77.6180   176.9690    45.6350 hc         1 QA4       0.098700
     34 H3         -76.6750   176.6740    48.5650 hc         1 QA4       0.074700
     35 H4         -77.9580   175.6900    47.7340 hc         1 QA4       0.074700
     36 H5         -60.0470   178.3870    40.4120 hc         1 QA4       0.062200
     37 H6         -60.7000   177.0940    41.3850 hc         1 QA4       0.062200
     38 H8         -60.7030   174.4910    38.6150 hc         1 QA4       0.071700
     39 H9         -69.8900   180.8440    41.8950 hc         1 QA4       0.070700
     40 H10        -70.3200   181.6590    40.3980 hc         1 QA4       0.070700
     41 H11        -67.8860   181.6190    40.6920 h1         1 QA4       0.066200
     42 H12        -68.3470   180.7180    39.2560 h1         1 QA4       0.066200
     43 H13        -67.9730   177.5580    41.4980 h1         1 QA4       0.066200
     44 H14        -68.8510   178.7260    42.4800 h1         1 QA4       0.066200
     45 H15        -70.3950   177.4700    41.0560 hc         1 QA4       0.070700
     46 H16        -69.4500   177.8250    39.6330 hc         1 QA4       0.070700
     47 H17        -70.7250   179.6180    39.2410 h1         1 QA4       0.083700
     48 H18        -75.4650   178.4330    47.2870 hc         1 QA4       0.071200
     49 H19        -76.9010   179.1790    46.6000 hc         1 QA4       0.071200
     50 H20        -76.2570   174.9220    46.0330 hc         1 QA4       0.074700
     51 H21        -74.9820   175.9110    46.8710 hc         1 QA4       0.074700
     52 H22        -60.0310   176.8760    38.3820 hc         1 QA4       0.097700
     53 H23        -58.3520   175.2340    39.1680 hc         1 QA4       0.071700
     54 H24        -58.8520   175.5150    40.8930 hc         1 QA4       0.071700
     55 H25        -62.4160   178.4240    41.9920 hn         1 QA4       0.330500
     56 H7         -61.1950   174.7850    40.3410 hc         1 QA4       0.071700
@<TRIPOS>BOND
     1     1     2 1   
     2     1    14 1   
     3     1    32 1   
     4     2    15 1   
     5     2    28 2   
     6     3     4 1   
     7     3    15 1   
     8     3    16 1   
     9     3    33 1   
    10     4    16 1   
    11     4    34 1   
    12     4    35 1   
    13     5    21 1   
    14     5    24 2   
    15     5    31 1   
    16     6    18 1   
    17     6    19 1   
    18     6    36 1   
    19     6    37 1   
    20     7    19 1   
    21     7    20 1   
    22     7    38 1   
    23     7    56 1   
    24     8     9 1   
    25     8    12 1   
    26     8    39 1   
    27     8    40 1   
    28     9    21 1   
    29     9    41 1   
    30     9    42 1   
    31    10    11 1   
    32    10    21 1   
    33    10    43 1   
    34    10    44 1   
    35    11    12 1   
    36    11    45 1   
    37    11    46 1   
    38    12    27 1   
    39    12    47 1   
    40    13    22 2   
    41    13    27 1   
    42    13    30 1   
    43    14    23 2   
    44    14    30 1   
    45    15    48 1   
    46    15    49 1   
    47    16    50 1   
    48    16    51 1   
    49    17    25 2   
    50    17    26 1   
    51    17    31 1   
    52    18    26 1   
    53    18    29 2   
    54    19    20 1   
    55    19    52 1   
    56    20    53 1   
    57    20    54 1   
    58    22    23 1   
    59    24    25 1   
    60    26    55 1   
@<TRIPOS>SUBSTRUCTURE
     1 QA4         1 TEMP              0 ****  ****    0 ROOT
