@<TRIPOS>MOLECULE
QA6
   52    55     1     0     0
SMALL
abcg2


@<TRIPOS>ATOM
      1 N          -31.9910     0.7190    14.0640 na         1 QA6      -0.296300
      2 C          -35.2310    -0.7260    14.9760 c5         1 QA6       0.112300
      3 O          -35.8940     0.0750    15.9470 oh         1 QA6      -0.693000
      4 C1         -34.4280     0.2010    14.0580 c5         1 QA6       0.140300
      5 C10        -28.0360     1.8160    11.0660 c3         1 QA6       0.228800
      6 C11        -28.9600     2.1210     9.8880 c3         1 QA6      -0.104400
      7 C12        -28.7760     1.1250     8.7380 c3         1 QA6      -0.020100
      8 C13        -29.7330     1.3850     7.6040 ca         1 QA6      -0.112300
      9 C14        -29.3830     2.2100     6.5350 ca         1 QA6      -0.069500
     10 C15        -30.2810     2.5020     5.5160 ca         1 QA6      -0.168500
     11 C16        -31.5650     1.9630     5.5530 ca         1 QA6       0.129100
     12 C17        -31.9360     1.1330     6.6090 ca         1 QA6      -0.168500
     13 C18        -31.0230     0.8540     7.6200 ca         1 QA6      -0.069500
     14 C2         -34.1230    -1.5810    15.6070 c5         1 QA6       0.133300
     15 C3         -33.8320    -2.8960    14.9160 c3         1 QA6       0.146600
     16 C4         -33.1550     0.4380    14.8720 c5         1 QA6       0.319300
     17 C5         -31.4510    -0.0770    13.0770 cc         1 QA6       0.414700
     18 C6         -30.2040     1.6630    13.1680 ca         1 QA6      -0.088600
     19 C7         -31.1960     1.8400    14.1390 ca         1 QA6       0.144500
     20 C8         -30.3810     3.7980    14.7590 ca         1 QA6       0.177900
     21 C9         -29.2590     2.7060    13.0440 ca         1 QA6       0.437900
     22 N1         -30.3900     0.4480    12.5200 nd         1 QA6      -0.564100
     23 N2         -31.3310     2.8850    14.9600 nb         1 QA6      -0.215000
     24 N3         -29.3880     3.7700    13.8720 nb         1 QA6      -0.302000
     25 N4         -28.2250     2.7270    12.1850 nu         1 QA6      -0.909100
     26 O1         -35.0130     1.4430    13.7370 oh         1 QA6      -0.679000
     27 O3         -32.9400    -0.7430    15.6230 os         1 QA6      -0.450000
     28 O4         -32.4180     2.2760     4.5290 oh         1 QA6      -0.540100
     29 H1         -35.9470    -1.3360    14.4200 h1         1 QA6       0.058700
     30 H2         -36.3830    -0.5110    16.5380 ho         1 QA6       0.501000
     31 H3         -34.1790    -0.3600    13.1570 h1         1 QA6       0.065700
     32 H4         -28.2020     0.7960    11.4090 h1         1 QA6       0.063700
     33 H5         -26.9930     1.8990    10.7590 h1         1 QA6       0.063700
     34 H6         -28.7720     3.1380     9.5310 hc         1 QA6       0.053200
     35 H7         -29.9970     2.0860    10.2310 hc         1 QA6       0.053200
     36 H8         -28.9260     0.1120     9.1210 hc         1 QA6       0.047200
     37 H9         -27.7470     1.1790     8.3730 hc         1 QA6       0.047200
     38 H10        -28.3860     2.6350     6.4960 ha         1 QA6       0.114000
     39 H11        -29.9970     3.1410     4.6890 ha         1 QA6       0.119500
     40 H12        -32.9330     0.7090     6.6360 ha         1 QA6       0.119500
     41 H13        -31.3240     0.2080     8.4370 ha         1 QA6       0.114000
     42 H14        -34.3830    -1.8060    16.6440 h1         1 QA6       0.075700
     43 H15        -34.6950    -3.5570    15.0610 h1         1 QA6       0.039700
     44 H16        -32.9620    -3.3560    15.3940 h1         1 QA6       0.039700
     45 H17        -33.2860     1.3010    15.5280 h2         1 QA6       0.126700
     46 H18        -31.8860    -1.0350    12.8370 h5         1 QA6       0.076800
     47 H19        -30.4210     4.6780    15.3940 h5         1 QA6       0.047100
     48 H20        -27.7060     3.5930    12.1760 hn         1 QA6       0.498000
     49 H21        -35.6460     1.3100    13.0210 ho         1 QA6       0.509000
     50 H22        -33.3250    -3.5150    13.1280 ho         1 QA6       0.512000
     51 H23        -33.2700     1.8400     4.6670 ho         1 QA6       0.460000
     52 O2         -33.5870    -2.6780    13.5270 oh         1 QA6      -0.740000
@<TRIPOS>BOND
     1     1    16 1   
     2     1    17 1   
     3     1    19 1   
     4     2     3 1   
     5     2     4 1   
     6     2    14 1   
     7     2    29 1   
     8     3    30 1   
     9     4    16 1   
    10     4    26 1   
    11     4    31 1   
    12     5     6 1   
    13     5    25 1   
    14     5    32 1   
    15     5    33 1   
    16     6     7 1   
    17     6    34 1   
    18     6    35 1   
    19     7     8 1   
    20     7    36 1   
    21     7    37 1   
    22     8     9 ar  
    23     8    13 ar  
    24     9    10 ar  
    25     9    38 1   
    26    10    11 ar  
    27    10    39 1   
    28    11    12 ar  
    29    11    28 1   
    30    12    13 ar  
    31    12    40 1   
    32    13    41 1   
    33    14    15 1   
    34    14    27 1   
    35    14    42 1   
    36    15    43 1   
    37    15    44 1   
    38    15    52 1   
    39    16    27 1   
    40    16    45 1   
    41    17    22 2   
    42    17    46 1   
    43    18    19 ar  
    44    18    21 ar  
    45    18    22 1   
    46    19    23 ar  
    47    20    23 ar  
    48    20    24 ar  
    49    20    47 1   
    50    21    24 ar  
    51    21    25 1   
    52    25    48 1   
    53    26    49 1   
    54    28    51 1   
    55    50    52 1   
@<TRIPOS>SUBSTRUCTURE
     1 QA6         1 TEMP              0 ****  ****    0 ROOT
