@<TRIPOS>MOLECULE
QA6
   52    55     1     0     0
SMALL
No Charge or Current Charge


@<TRIPOS>ATOM
      1 N          -32.1280     0.3840    13.6560 na         1 QA6      -0.296300
      2 C          -35.3380    -1.0600    14.9570 c5         1 QA6       0.112300
      3 O          -36.2530     0.0550    14.9830 oh         1 QA6      -0.693000
      4 C1         -34.3680    -0.9260    13.7510 c5         1 QA6       0.140300
      5 C10        -27.9310     1.5010    10.8370 c3         1 QA6       0.228800
      6 C11        -28.8550     2.0620     9.7360 c3         1 QA6      -0.104400
      7 C12        -28.7140     1.3150     8.3930 c3         1 QA6      -0.020100
      8 C13        -29.6430     1.8790     7.3260 ca         1 QA6      -0.112300
      9 C14        -29.1670     2.8240     6.3950 ca         1 QA6      -0.069500
     10 C15        -30.0300     3.3450     5.4140 ca         1 QA6      -0.168500
     11 C16        -31.3670     2.9270     5.3590 ca         1 QA6       0.129100
     12 C17        -31.8480     1.9870     6.2840 ca         1 QA6      -0.168500
     13 C18        -30.9880     1.4650     7.2670 ca         1 QA6      -0.069500
     14 C2         -34.3170    -1.0380    16.1570 c5         1 QA6       0.133300
     15 C3         -33.9190    -2.4350    16.7240 c3         1 QA6       0.146600
     16 C4         -33.3950     0.1430    14.3460 c5         1 QA6       0.319300
     17 C5         -31.5560    -0.4330    12.6790 cc         1 QA6       0.414700
     18 C6         -30.2600     1.2770    12.9490 ca         1 QA6      -0.088600
     19 C7         -31.3060     1.4610    13.8230 ca         1 QA6       0.144500
     20 C8         -30.3760     3.4170    14.5460 ca         1 QA6       0.177900
     21 C9         -29.2400     2.2670    12.9140 ca         1 QA6       0.437900
     22 N1         -30.4000     0.0850    12.2240 nd         1 QA6      -0.564100
     23 N2         -31.3920     2.5310    14.6360 nb         1 QA6      -0.215000
     24 N3         -29.3010     3.3360    13.7280 nb         1 QA6      -0.302000
     25 N4         -28.1080     2.2390    12.0990 nu         1 QA6      -0.909100
     26 O1         -35.0720    -0.5010    12.5740 oh         1 QA6      -0.679000
     27 O3         -33.1280    -0.3480    15.6760 os         1 QA6      -0.450000
     28 O4         -32.1950     3.4380     4.4040 oh         1 QA6      -0.540100
     29 H1         -35.8910    -2.0100    14.9180 h1         1 QA6       0.058700
     30 H2         -36.9030    -0.1090    15.7080 ho         1 QA6       0.501000
     31 H3         -33.8420    -1.8720    13.5650 h1         1 QA6       0.065700
     32 H4         -28.1270     0.4290    10.9810 h1         1 QA6       0.063700
     33 H5         -26.8880     1.5930    10.4990 h1         1 QA6       0.063700
     34 H6         -28.6290     3.1240     9.5810 hc         1 QA6       0.053200
     35 H7         -29.8980     2.0020    10.0670 hc         1 QA6       0.053200
     36 H8         -28.9300     0.2510     8.5500 hc         1 QA6       0.047200
     37 H9         -27.6710     1.3700     8.0570 hc         1 QA6       0.047200
     38 H10        -28.1320     3.1560     6.4320 ha         1 QA6       0.114000
     39 H11        -29.6580     4.0740     4.6980 ha         1 QA6       0.119500
     40 H12        -32.8840     1.6580     6.2500 ha         1 QA6       0.119500
     41 H13        -31.3670     0.7390     7.9830 ha         1 QA6       0.114000
     42 H14        -34.7290    -0.4560    16.9930 h1         1 QA6       0.075700
     43 H15        -34.7870    -2.8480    17.2550 h1         1 QA6       0.039700
     44 H16        -33.1220    -2.2930    17.4680 h1         1 QA6       0.039700
     45 H17        -33.9060     1.1130    14.4080 h2         1 QA6       0.126700
     46 H18        -32.0080    -1.3610    12.3490 h5         1 QA6       0.076800
     47 H19        -30.4270     4.2860    15.2010 h5         1 QA6       0.047100
     48 H20        -27.4710     3.0190    12.2620 hn         1 QA6       0.498000
     49 H21        -35.8670    -0.0340    12.9340 ho         1 QA6       0.509000
     50 H22        -33.1870    -4.1730    16.1480 ho         1 QA6       0.512000
     51 H23        -33.0830     3.0360     4.5160 ho         1 QA6       0.460000
     52 O2         -33.4920    -3.3510    15.6950 oh         1 QA6      -0.740000
@<TRIPOS>BOND
     1     1    16 1   
     2     1    17 1   
     3     1    19 1   
     4     2     3 1   
     5     2     4 1   
     6     2    14 1   
     7     2    29 1   
     8     3    30 1   
     9     4    16 1   
    10     4    26 1   
    11     4    31 1   
    12     5     6 1   
    13     5    25 1   
    14     5    32 1   
    15     5    33 1   
    16     6     7 1   
    17     6    34 1   
    18     6    35 1   
    19     7     8 1   
    20     7    36 1   
    21     7    37 1   
    22     8     9 ar  
    23     8    13 ar  
    24     9    10 ar  
    25     9    38 1   
    26    10    11 ar  
    27    10    39 1   
    28    11    12 ar  
    29    11    28 1   
    30    12    13 ar  
    31    12    40 1   
    32    13    41 1   
    33    14    15 1   
    34    14    27 1   
    35    14    42 1   
    36    15    43 1   
    37    15    44 1   
    38    15    52 1   
    39    16    27 1   
    40    16    45 1   
    41    17    22 2   
    42    17    46 1   
    43    18    19 ar  
    44    18    21 ar  
    45    18    22 1   
    46    19    23 ar  
    47    20    23 ar  
    48    20    24 ar  
    49    20    47 1   
    50    21    24 ar  
    51    21    25 1   
    52    25    48 1   
    53    26    49 1   
    54    28    51 1   
    55    50    52 1   
@<TRIPOS>SUBSTRUCTURE
     1 QA6         1 TEMP              0 ****  ****    0 ROOT
