@<TRIPOS>MOLECULE
QA8
   20    19     1     0     0
SMALL
No Charge or Current Charge


@<TRIPOS>ATOM
      1 C10         56.5460    16.8610    16.8510 c          1 QA8       0.646000
      2 C01         59.8840    15.3710    15.6800 c3         1 QA8      -0.078100
      3 C02         59.6970    16.5890    14.7500 c3         1 QA8      -0.054400
      4 C03         58.2650    17.1960    14.7790 c3         1 QA8      -0.151700
      5 C04         58.0780    18.3880    13.7850 c3         1 QA8      -0.190400
      6 C05         58.1250    17.9350    12.3100 c          1 QA8       0.717000
      7 C08         57.8440    17.6090    16.2170 c          1 QA8       0.443100
      8 O06         59.1900    17.9910    11.7150 o          1 QA8      -0.762000
      9 O07         57.0950    17.5140    11.8050 o          1 QA8      -0.762000
     10 O09         58.4700    18.4800    16.8350 o          1 QA8      -0.612100
     11 O11         56.3910    15.6600    16.6420 o          1 QA8      -0.721000
     12 O12         55.7640    17.5210    17.5340 o          1 QA8      -0.721000
     13 H012        60.8970    14.9660    15.5730 hc         1 QA8       0.009367
     14 H013        59.7390    15.6490    16.7300 hc         1 QA8       0.009367
     15 H011        59.1700    14.5780    15.4270 hc         1 QA8       0.009367
     16 H031        57.5710    16.4090    14.4630 hc         1 QA8       0.100700
     17 H041        58.8810    19.1050    13.9950 hc         1 QA8       0.026700
     18 H042        57.0770    18.7820    14.0040 hc         1 QA8       0.026700
     19 H021        59.9390    16.2740    13.7290 hc         1 QA8       0.031700
     20 H022        60.4280    17.3590    15.0240 hc         1 QA8       0.031700
@<TRIPOS>BOND
     1     1     7 1   
     2     1    11 1   
     3     1    12 1   
     4     2     3 1   
     5     2    13 1   
     6     2    14 1   
     7     2    15 1   
     8     3     4 1   
     9     3    19 1   
    10     3    20 1   
    11     4     5 1   
    12     4     7 1   
    13     4    16 1   
    14     5     6 1   
    15     5    17 1   
    16     5    18 1   
    17     6     8 1   
    18     6     9 1   
    19     7    10 2   
@<TRIPOS>SUBSTRUCTURE
     1 QA8         1 TEMP              0 ****  ****    0 ROOT
