@<TRIPOS>MOLECULE
QA8
   20    19     1     0     0
SMALL
bcc


@<TRIPOS>ATOM
      1 C10         56.3630    17.4960    16.5690 c          1 QA8       0.856600
      2 C01         59.9640    15.2070    15.5760 c3         1 QA8      -0.078100
      3 C02         59.7410    16.5090    14.8150 c3         1 QA8      -0.054400
      4 C03         58.3040    17.0110    14.8770 c3         1 QA8      -0.151700
      5 C04         58.0710    18.2080    13.9460 c3         1 QA8      -0.190400
      6 C05         58.1210    17.8930    12.4310 c          1 QA8       0.927600
      7 C08         57.8860    17.4500    16.2600 c          1 QA8       0.443100
      8 O06         58.3730    18.8660    11.6910 o          1 QA8      -0.867300
      9 O07         57.8700    16.7260    12.0740 o          1 QA8      -0.867300
     10 O09         58.6870    17.7870    17.1070 o          1 QA8      -0.612100
     11 O11         55.6810    16.6230    16.0020 o          1 QA8      -0.826300
     12 O12         55.9950    18.3750    17.3620 o          1 QA8      -0.826300
     13 H012        60.9870    14.8480    15.4560 hc         1 QA8       0.009367
     14 H013        59.7840    15.3230    16.6450 hc         1 QA8       0.009367
     15 H011        59.2970    14.4230    15.2130 hc         1 QA8       0.009367
     16 H031        57.6290    16.2160    14.5560 hc         1 QA8       0.100700
     17 H041        58.7910    19.0000    14.1780 hc         1 QA8       0.026700
     18 H042        57.0830    18.6440    14.1380 hc         1 QA8       0.026700
     19 H021        60.0010    16.3510    13.7670 hc         1 QA8       0.031700
     20 H022        60.4220    17.2800    15.1850 hc         1 QA8       0.031700
@<TRIPOS>BOND
     1     1     7 1   
     2     1    11 1   
     3     1    12 1   
     4     2     3 1   
     5     2    13 1   
     6     2    14 1   
     7     2    15 1   
     8     3     4 1   
     9     3    19 1   
    10     3    20 1   
    11     4     5 1   
    12     4     7 1   
    13     4    16 1   
    14     5     6 1   
    15     5    17 1   
    16     5    18 1   
    17     6     8 1   
    18     6     9 1   
    19     7    10 2   
@<TRIPOS>SUBSTRUCTURE
     1 QA8         1 TEMP              0 ****  ****    0 ROOT
