@<TRIPOS>MOLECULE
QA9
   24    24     1     0     0
SMALL
No Charge or Current Charge


@<TRIPOS>ATOM
      1 C10         -4.3490    -8.3710    40.1350 ca         1 QA9      -0.217000
      2 N12         -1.9730    -8.3500    39.8570 nv         1 QA9      -1.097000
      3 C13         -3.3130    -9.5940    38.3150 ca         1 QA9      -0.217000
      4 C02         -6.7210   -12.1270    39.5110 c2         1 QA9       0.831100
      5 C08         -5.7310    -9.6270    38.5760 ca         1 QA9      -0.376500
      6 C09         -5.6180    -8.7970    39.7090 ca         1 QA9       0.047500
      7 C11         -3.2020    -8.7690    39.4390 ca         1 QA9       0.370000
      8 C14         -4.5750   -10.0280    37.8770 ca         1 QA9       0.047500
      9 N01         -7.2710   -12.1410    40.6960 nv         1 QA9      -1.080200
     10 N03         -6.1590   -13.1320    39.0440 n2         1 QA9      -0.872100
     11 N04         -7.6700   -11.5790    38.8430 nu         1 QA9      -0.863300
     12 O06         -7.2940   -10.5920    36.6210 o          1 QA9      -0.539000
     13 O07         -8.3820    -9.2810    38.5400 o          1 QA9      -0.539000
     14 S05         -7.3490   -10.1820    38.0270 sy         1 QA9       1.232600
     15 H1          -4.2630    -7.7320    41.0080 ha         1 QA9       0.116000
     16 H2          -1.1700    -8.4810    39.2450 hn         1 QA9       0.473000
     17 H3          -1.9090    -7.6050    40.5480 hn         1 QA9       0.473000
     18 H4          -2.4230    -9.9050    37.7750 ha         1 QA9       0.116000
     19 H5          -6.5020    -8.4800    40.2610 ha         1 QA9       0.132500
     20 H6          -4.6470   -10.6740    37.0030 ha         1 QA9       0.132500
     21 H7          -6.6130   -11.8360    41.4050 hn         1 QA9       0.464500
     22 H8          -7.6380   -13.0600    40.9100 hn         1 QA9       0.464500
     23 H9          -5.7620   -13.6550    39.8300 hn         1 QA9       0.394400
     24 H10         -8.3160   -11.2540    39.5310 hn         1 QA9       0.504000
@<TRIPOS>BOND
     1     1     6 ar  
     2     1     7 ar  
     3     1    15 1   
     4     2     7 1   
     5     2    16 1   
     6     2    17 1   
     7     3     7 ar  
     8     3     8 ar  
     9     3    18 1   
    10     4     9 1   
    11     4    10 2   
    12     4    11 1   
    13     5     6 ar  
    14     5     8 ar  
    15     5    14 1   
    16     6    19 1   
    17     8    20 1   
    18     9    21 1   
    19     9    22 1   
    20    10    23 1   
    21    11    14 1   
    22    11    24 1   
    23    12    14 2   
    24    13    14 2   
@<TRIPOS>SUBSTRUCTURE
     1 QA9         1 TEMP              0 ****  ****    0 ROOT
