@<TRIPOS>MOLECULE
QA9
   24    24     1     0     0
SMALL
abcg2


@<TRIPOS>ATOM
      1 C10         -4.2720    -8.3130    40.0750 ca         1 QA9      -0.217000
      2 N12         -1.8750    -8.3070    39.8080 nv         1 QA9      -1.097000
      3 C13         -3.2480    -9.5450    38.2580 ca         1 QA9      -0.217000
      4 C02         -7.0630   -12.3520    39.6500 c2         1 QA9       0.831100
      5 C08         -5.6310    -9.5910    38.5590 ca         1 QA9      -0.376500
      6 C09         -5.5140    -8.7520    39.6700 ca         1 QA9       0.047500
      7 C11         -3.1100    -8.7030    39.3780 ca         1 QA9       0.370000
      8 C14         -4.4930    -9.9880    37.8580 ca         1 QA9       0.047500
      9 N01         -7.6040   -12.8840    40.7940 nv         1 QA9      -1.080200
     10 N03         -6.0970   -12.8240    38.9580 n2         1 QA9      -0.872100
     11 N04         -7.7470   -11.2080    39.2200 nu         1 QA9      -0.863300
     12 O06         -7.1140   -10.8080    36.7990 o          1 QA9      -0.539000
     13 O07         -8.1620    -9.0470    38.2010 o          1 QA9      -0.539000
     14 S05         -7.2160   -10.1320    38.0660 sy         1 QA9       1.232600
     15 H1          -4.1800    -7.6590    40.9340 ha         1 QA9       0.116000
     16 H2          -1.1000    -8.3930    39.1690 hn         1 QA9       0.473000
     17 H3          -1.8200    -7.5250    40.4400 hn         1 QA9       0.473000
     18 H4          -2.3630    -9.8490    37.7120 ha         1 QA9       0.116000
     19 H5          -6.3970    -8.4400    40.2120 ha         1 QA9       0.132500
     20 H6          -4.5890   -10.6400    37.0030 ha         1 QA9       0.132500
     21 H7          -8.0810   -12.2650    41.4330 hn         1 QA9       0.464500
     22 H8          -7.0540   -13.5980    41.2470 hn         1 QA9       0.464500
     23 H9          -5.7010   -13.6430    39.4130 hn         1 QA9       0.394400
     24 H10         -8.4170   -10.7880    39.8500 hn         1 QA9       0.504000
@<TRIPOS>BOND
     1     1     6 ar  
     2     1     7 ar  
     3     1    15 1   
     4     2     7 1   
     5     2    16 1   
     6     2    17 1   
     7     3     7 ar  
     8     3     8 ar  
     9     3    18 1   
    10     4     9 1   
    11     4    10 2   
    12     4    11 1   
    13     5     6 ar  
    14     5     8 ar  
    15     5    14 1   
    16     6    19 1   
    17     8    20 1   
    18     9    21 1   
    19     9    22 1   
    20    10    23 1   
    21    11    14 1   
    22    11    24 1   
    23    12    14 2   
    24    13    14 2   
@<TRIPOS>SUBSTRUCTURE
     1 QA9         1 TEMP              0 ****  ****    0 ROOT
