@<TRIPOS>MOLECULE
QAA
   68    72     1     0     0
SMALL
abcg2


@<TRIPOS>ATOM
      1 C10         -6.4650   -41.0370    44.2670 ca         1 QAA      -0.106000
      2 N12         -5.0030   -40.3640    46.1410 ns         1 QAA      -0.329900
      3 C13         -4.8660   -39.0050    46.0950 c          1 QAA       0.616100
      4 C15         -4.7080   -36.9120    44.7290 ca         1 QAA      -0.074300
      5 C17         -4.6300   -34.5730    45.3210 ca         1 QAA      -0.112500
      6 C20         -3.6310   -36.7120    43.8730 ca         1 QAA      -0.093500
      7 C24         -8.9020   -44.7200    41.6180 ca         1 QAA       0.556900
      8 C26         -9.1040   -42.9520    40.0440 ca         1 QAA      -0.116000
      9 C01         -6.0390   -46.1660    41.3470 c6         1 QAA      -0.123900
     10 C02         -7.4840   -46.6770    41.2290 c6         1 QAA       0.209300
     11 C04         -8.1440   -46.1060    43.4790 c6         1 QAA       0.209300
     12 C05         -6.6330   -46.2050    43.7660 c6         1 QAA      -0.123900
     13 C06         -5.8150   -45.4930    42.6990 c6         1 QAA       0.190300
     14 C08         -5.9980   -43.2080    43.4520 ca         1 QAA       0.511300
     15 C09         -6.7450   -42.0210    43.3700 ca         1 QAA      -0.104000
     16 C11         -5.4150   -41.2770    45.1710 ca         1 QAA       0.391900
     17 C14         -5.3340   -38.2690    44.8560 c3         1 QAA      -0.114100
     18 C16         -5.2010   -35.8300    45.4530 ca         1 QAA      -0.093500
     19 C18         -3.5530   -34.3810    44.4640 ca         1 QAA      -0.105000
     20 C19         -3.0540   -35.4540    43.7390 ca         1 QAA      -0.112500
     21 C25         -8.6450   -44.2040    40.3280 ca         1 QAA      -0.148000
     22 C27         -9.8310   -42.2780    41.0350 ca         1 QAA       0.343900
     23 C29         -9.9210   -39.9490    41.7220 c          1 QAA       0.608100
     24 C30        -10.2930   -38.5590    41.2370 c3         1 QAA      -0.113100
     25 C31         -9.5850   -37.4960    42.0240 ca         1 QAA      -0.073300
     26 C32        -10.2600   -36.7400    42.9750 ca         1 QAA      -0.096500
     27 C33         -9.5910   -35.7790    43.7250 ca         1 QAA      -0.109500
     28 C34         -8.2330   -35.5700    43.5330 ca         1 QAA      -0.104000
     29 C35         -7.5500   -36.3200    42.5830 ca         1 QAA      -0.109500
     30 C36         -8.2230   -37.2730    41.8340 ca         1 QAA      -0.096500
     31 N03         -8.3980   -45.9110    42.0540 nh         1 QAA      -0.750300
     32 N22         -4.7890   -42.4320    45.2170 nb         1 QAA      -0.345000
     33 N23         -5.0880   -43.4030    44.3750 nb         1 QAA      -0.389000
     34 N28        -10.2320   -40.9480    40.8480 ns         1 QAA      -0.331900
     35 N38        -10.1350   -42.8530    42.1730 nb         1 QAA      -0.271000
     36 N39         -9.6760   -44.0470    42.4670 nb         1 QAA      -0.376000
     37 O07         -6.2600   -44.1360    42.5400 os         1 QAA      -0.477300
     38 O21         -4.3850   -38.4210    47.0460 o          1 QAA      -0.565100
     39 O37         -9.3990   -40.1440    42.7990 o          1 QAA      -0.560100
     40 H1          -7.0590   -40.1360    44.2830 ha         1 QAA       0.157000
     41 H2          -4.5520   -40.7950    46.9390 hn         1 QAA       0.170000
     42 H3          -5.0280   -33.7400    45.8880 ha         1 QAA       0.112500
     43 H4          -3.2400   -37.5440    43.2990 ha         1 QAA       0.113000
     44 H5          -8.8920   -42.4810    39.0920 ha         1 QAA       0.125000
     45 H6          -5.3510   -47.0080    41.2580 hc         1 QAA       0.063700
     46 H7          -5.7870   -45.4700    40.5450 hc         1 QAA       0.063700
     47 H8          -7.8210   -46.6980    40.1940 h1         1 QAA       0.064950
     48 H9          -7.5410   -47.7110    41.5740 h1         1 QAA       0.064950
     49 H10         -8.5810   -45.2750    44.0250 h1         1 QAA       0.064950
     50 H11         -8.6450   -47.0130    43.8250 h1         1 QAA       0.064950
     51 H12         -6.3070   -47.2480    43.7740 hc         1 QAA       0.063700
     52 H13         -6.4200   -45.8120    44.7610 hc         1 QAA       0.063700
     53 H14         -4.7540   -45.5010    42.9570 h1         1 QAA       0.076700
     54 H15         -7.5390   -41.9150    42.6470 ha         1 QAA       0.155000
     55 H16         -5.1360   -38.8580    43.9580 hc         1 QAA       0.074200
     56 H17         -6.4210   -38.1630    44.9220 hc         1 QAA       0.074200
     57 H18         -6.0460   -35.9660    46.1160 ha         1 QAA       0.113000
     58 H19         -3.1100   -33.3990    44.3580 ha         1 QAA       0.112000
     59 H20         -2.2180   -35.3160    43.0670 ha         1 QAA       0.112500
     60 H21         -8.0610   -44.7430    39.5960 ha         1 QAA       0.130000
     61 H22        -11.3780   -38.4520    41.3310 hc         1 QAA       0.066700
     62 H23        -10.0720   -38.4690    40.1700 hc         1 QAA       0.066700
     63 H24        -11.3200   -36.9040    43.1350 ha         1 QAA       0.109500
     64 H25        -10.1330   -35.1990    44.4600 ha         1 QAA       0.117000
     65 H26         -7.7050   -34.8270    44.1170 ha         1 QAA       0.117000
     66 H27         -6.4900   -36.1630    42.4290 ha         1 QAA       0.117000
     67 H28         -7.6820   -37.8530    41.0950 ha         1 QAA       0.109500
     68 H29        -10.5250   -40.6830    39.9200 hn         1 QAA       0.153000
@<TRIPOS>BOND
     1     1    15 ar  
     2     1    16 ar  
     3     1    40 1   
     4     2     3 1   
     5     2    16 1   
     6     2    41 1   
     7     3    17 1   
     8     3    38 2   
     9     4     6 ar  
    10     4    17 1   
    11     4    18 ar  
    12     5    18 ar  
    13     5    19 ar  
    14     5    42 1   
    15     6    20 ar  
    16     6    43 1   
    17     7    21 ar  
    18     7    31 1   
    19     7    36 ar  
    20     8    21 ar  
    21     8    22 ar  
    22     8    44 1   
    23     9    10 1   
    24     9    13 1   
    25     9    45 1   
    26     9    46 1   
    27    10    31 1   
    28    10    47 1   
    29    10    48 1   
    30    11    12 1   
    31    11    31 1   
    32    11    49 1   
    33    11    50 1   
    34    12    13 1   
    35    12    51 1   
    36    12    52 1   
    37    13    37 1   
    38    13    53 1   
    39    14    15 ar  
    40    14    33 ar  
    41    14    37 1   
    42    15    54 1   
    43    16    32 ar  
    44    17    55 1   
    45    17    56 1   
    46    18    57 1   
    47    19    20 ar  
    48    19    58 1   
    49    20    59 1   
    50    21    60 1   
    51    22    34 1   
    52    22    35 ar  
    53    23    24 1   
    54    23    34 1   
    55    23    39 2   
    56    24    25 1   
    57    24    61 1   
    58    24    62 1   
    59    25    26 ar  
    60    25    30 ar  
    61    26    27 ar  
    62    26    63 1   
    63    27    28 ar  
    64    27    64 1   
    65    28    29 ar  
    66    28    65 1   
    67    29    30 ar  
    68    29    66 1   
    69    30    67 1   
    70    32    33 ar  
    71    34    68 1   
    72    35    36 ar  
@<TRIPOS>SUBSTRUCTURE
     1 QAA         1 TEMP              0 ****  ****    0 ROOT
