@<TRIPOS>MOLECULE
QAA
   68    72     1     0     0
SMALL
No Charge or Current Charge


@<TRIPOS>ATOM
      1 C10         -6.8120   -40.4330    44.3250 ca         1 QAA      -0.106000
      2 N12         -5.6210   -39.5610    46.3220 ns         1 QAA      -0.329900
      3 C13         -5.7000   -38.1850    46.3090 c          1 QAA       0.616100
      4 C15         -4.0610   -36.9880    44.8200 ca         1 QAA      -0.074300
      5 C17         -2.3440   -35.2740    45.0910 ca         1 QAA      -0.112500
      6 C20         -3.0940   -37.8580    44.2790 ca         1 QAA      -0.093500
      7 C24         -8.6540   -44.5630    41.5130 ca         1 QAA       0.556900
      8 C26         -9.0850   -42.7940    39.9030 ca         1 QAA      -0.116000
      9 C01         -5.5110   -45.5650    41.3070 c6         1 QAA      -0.123900
     10 C02         -6.8650   -46.3320    41.2150 c6         1 QAA       0.209300
     11 C04         -7.5930   -45.7050    43.4990 c6         1 QAA       0.209300
     12 C05         -6.0710   -45.5340    43.7690 c6         1 QAA      -0.123900
     13 C06         -5.3590   -44.7570    42.6260 c6         1 QAA       0.190300
     14 C08         -5.8860   -42.4740    43.4010 ca         1 QAA       0.511300
     15 C09         -6.8490   -41.4480    43.3480 ca         1 QAA      -0.104000
     16 C11         -5.7880   -40.4940    45.2890 ca         1 QAA       0.391900
     17 C14         -5.5070   -37.4490    44.9690 c3         1 QAA      -0.114100
     18 C16         -3.6790   -35.6940    45.2260 ca         1 QAA      -0.093500
     19 C18         -1.3840   -36.1460    44.5500 ca         1 QAA      -0.105000
     20 C19         -1.7590   -37.4370    44.1450 ca         1 QAA      -0.112500
     21 C25         -8.3950   -43.9730    40.2520 ca         1 QAA      -0.148000
     22 C27        -10.0120   -42.2720    40.8210 ca         1 QAA       0.343900
     23 C29        -11.5730   -40.3310    41.3270 c          1 QAA       0.608100
     24 C30        -11.6890   -38.8480    40.9630 c3         1 QAA      -0.113100
     25 C31        -10.8430   -38.0190    41.9260 ca         1 QAA      -0.073300
     26 C32        -11.4220   -37.4490    43.0760 ca         1 QAA      -0.096500
     27 C33        -10.6330   -36.7100    43.9760 ca         1 QAA      -0.109500
     28 C34         -9.2600   -36.5370    43.7320 ca         1 QAA      -0.104000
     29 C35         -8.6760   -37.1050    42.5870 ca         1 QAA      -0.109500
     30 C36         -9.4640   -37.8440    41.6880 ca         1 QAA      -0.096500
     31 N03         -7.9190   -45.6680    42.0320 nh         1 QAA      -0.750300
     32 N22         -4.8790   -41.4980    45.3010 nb         1 QAA      -0.345000
     33 N23         -4.9240   -42.4760    44.3650 nb         1 QAA      -0.389000
     34 N28        -10.5960   -41.0050    40.6190 ns         1 QAA      -0.331900
     35 N38        -10.2550   -42.8890    42.0000 nb         1 QAA      -0.271000
     36 N39         -9.5910   -44.0190    42.3340 nb         1 QAA      -0.376000
     37 O07         -5.9280   -43.4410    42.4230 os         1 QAA      -0.477300
     38 O21         -5.8220   -37.5700    47.3590 o          1 QAA      -0.565100
     39 O37        -12.2620   -40.8380    42.2040 o          1 QAA      -0.560100
     40 H1          -7.5530   -39.6380    44.3370 ha         1 QAA       0.157000
     41 H2          -5.5660   -39.9750    47.2430 hn         1 QAA       0.170000
     42 H3          -2.0550   -34.2740    45.4070 ha         1 QAA       0.112500
     43 H4          -3.3730   -38.8610    43.9630 ha         1 QAA       0.113000
     44 H5          -8.8760   -42.2780    38.9690 ha         1 QAA       0.125000
     45 H6          -4.6880   -46.2870    41.2160 hc         1 QAA       0.063700
     46 H7          -5.4070   -44.8850    40.4510 hc         1 QAA       0.063700
     47 H8          -7.1730   -46.4550    40.1660 h1         1 QAA       0.064950
     48 H9          -6.7140   -47.3540    41.5960 h1         1 QAA       0.064950
     49 H10         -8.1090   -44.9070    44.0500 h1         1 QAA       0.064950
     50 H11         -7.9420   -46.6490    43.9450 h1         1 QAA       0.064950
     51 H12         -5.6090   -46.5260    43.8600 hc         1 QAA       0.063700
     52 H13         -5.9140   -45.0460    44.7400 hc         1 QAA       0.063700
     53 H14         -4.2880   -44.6450    42.8550 h1         1 QAA       0.076700
     54 H15         -7.6070   -41.4560    42.5710 ha         1 QAA       0.155000
     55 H16         -5.7460   -38.0870    44.1160 hc         1 QAA       0.074200
     56 H17         -6.1700   -36.5760    44.9560 hc         1 QAA       0.074200
     57 H18         -4.4150   -35.0130    45.6490 ha         1 QAA       0.113000
     58 H19         -0.3510   -35.8210    44.4460 ha         1 QAA       0.112000
     59 H20         -1.0160   -38.1130    43.7270 ha         1 QAA       0.112500
     60 H21         -7.6470   -44.3750    39.5790 ha         1 QAA       0.130000
     61 H22        -12.7400   -38.5420    41.0280 hc         1 QAA       0.066700
     62 H23        -11.3190   -38.6860    39.9440 hc         1 QAA       0.066700
     63 H24        -12.4830   -37.5820    43.2780 ha         1 QAA       0.109500
     64 H25        -11.0870   -36.2720    44.8620 ha         1 QAA       0.117000
     65 H26         -8.6520   -35.9630    44.4270 ha         1 QAA       0.117000
     66 H27         -7.6130   -36.9720    42.3950 ha         1 QAA       0.117000
     67 H28         -9.0010   -38.2820    40.8070 ha         1 QAA       0.109500
     68 H29        -10.1530   -40.4640    39.8890 hn         1 QAA       0.153000
@<TRIPOS>BOND
     1     1    15 ar  
     2     1    16 ar  
     3     1    40 1   
     4     2     3 1   
     5     2    16 1   
     6     2    41 1   
     7     3    17 1   
     8     3    38 2   
     9     4     6 ar  
    10     4    17 1   
    11     4    18 ar  
    12     5    18 ar  
    13     5    19 ar  
    14     5    42 1   
    15     6    20 ar  
    16     6    43 1   
    17     7    21 ar  
    18     7    31 1   
    19     7    36 ar  
    20     8    21 ar  
    21     8    22 ar  
    22     8    44 1   
    23     9    10 1   
    24     9    13 1   
    25     9    45 1   
    26     9    46 1   
    27    10    31 1   
    28    10    47 1   
    29    10    48 1   
    30    11    12 1   
    31    11    31 1   
    32    11    49 1   
    33    11    50 1   
    34    12    13 1   
    35    12    51 1   
    36    12    52 1   
    37    13    37 1   
    38    13    53 1   
    39    14    15 ar  
    40    14    33 ar  
    41    14    37 1   
    42    15    54 1   
    43    16    32 ar  
    44    17    55 1   
    45    17    56 1   
    46    18    57 1   
    47    19    20 ar  
    48    19    58 1   
    49    20    59 1   
    50    21    60 1   
    51    22    34 1   
    52    22    35 ar  
    53    23    24 1   
    54    23    34 1   
    55    23    39 2   
    56    24    25 1   
    57    24    61 1   
    58    24    62 1   
    59    25    26 ar  
    60    25    30 ar  
    61    26    27 ar  
    62    26    63 1   
    63    27    28 ar  
    64    27    64 1   
    65    28    29 ar  
    66    28    65 1   
    67    29    30 ar  
    68    29    66 1   
    69    30    67 1   
    70    32    33 ar  
    71    34    68 1   
    72    35    36 ar  
@<TRIPOS>SUBSTRUCTURE
     1 QAA         1 TEMP              0 ****  ****    0 ROOT
