@<TRIPOS>MOLECULE
QAB
   23    24     1     0     0
SMALL
No Charge or Current Charge


@<TRIPOS>ATOM
      1 C1          -0.9480     0.1290     0.0600 cc         1 QAB      -0.235600
      2 O1          -1.7430     2.3410    -0.1820 o          1 QAB      -0.733000
      3 S1           0.2770    -2.1970     0.2250 ss         1 QAB      -0.009000
      4 C2          -2.0360     1.1630    -0.0530 c          1 QAB       0.735600
      5 N3          -2.4240    -1.8370     0.2250 nv         1 QAB      -1.060000
      6 C5           0.4710     0.4020     0.0500 cc         1 QAB      -0.001300
      7 C6           1.2470    -0.7320     0.1110 cd         1 QAB      -0.261300
      8 C7          -1.2040    -1.2250     0.1690 cd         1 QAB       0.219000
      9 C10          1.0850     1.7930    -0.0480 c6         1 QAB      -0.010100
     10 C11          2.6120     1.7850     0.2340 c6         1 QAB      -0.075400
     11 C12          3.3150     0.5930    -0.4540 c6         1 QAB      -0.069400
     12 C13          2.7600    -0.7470     0.0820 c6         1 QAB       0.020900
     13 OXT         -3.2100     0.8160    -0.0380 o          1 QAB      -0.733000
     14 HN3         -2.5110    -2.8390     0.0710 hn         1 QAB       0.460000
     15 HN3A        -3.2460    -1.2470     0.0800 hn         1 QAB       0.460000
     16 H10          0.9080     2.2070    -1.0500 hc         1 QAB       0.068700
     17 H10A         0.6190     2.4850     0.6650 hc         1 QAB       0.068700
     18 H11          3.0570     2.7310    -0.1030 hc         1 QAB       0.025700
     19 H11A         2.7840     1.7300     1.3180 hc         1 QAB       0.025700
     20 H12          3.1620     0.6510    -1.5400 hc         1 QAB       0.025200
     21 H12A         4.3990     0.6420    -0.2850 hc         1 QAB       0.025200
     22 H13          3.1460    -0.9230     1.0950 hc         1 QAB       0.026200
     23 H13A         3.1290    -1.5750    -0.5390 hc         1 QAB       0.026200
@<TRIPOS>BOND
     1     1     4 1   
     2     1     6 1   
     3     1     8 2   
     4     2     4 1   
     5     3     7 1   
     6     3     8 1   
     7     4    13 1   
     8     5     8 1   
     9     5    14 1   
    10     5    15 1   
    11     6     7 2   
    12     6     9 1   
    13     7    12 1   
    14     9    10 1   
    15     9    16 1   
    16     9    17 1   
    17    10    11 1   
    18    10    18 1   
    19    10    19 1   
    20    11    12 1   
    21    11    20 1   
    22    11    21 1   
    23    12    22 1   
    24    12    23 1   
@<TRIPOS>SUBSTRUCTURE
     1 QAB         1 TEMP              0 ****  ****    0 ROOT
