@<TRIPOS>MOLECULE
QAB
   23    24     1     0     0
SMALL
abcg2


@<TRIPOS>ATOM
      1 C1          -0.9470     0.1480     0.0780 cc         1 QAB      -0.235600
      2 O1          -1.7550     2.3380    -0.2640 o          1 QAB      -0.733000
      3 S1           0.2840    -2.1160     0.2710 ss         1 QAB      -0.009000
      4 C2          -2.0590     1.1460    -0.0660 c          1 QAB       0.735600
      5 N3          -2.3870    -1.8520     0.3520 nv         1 QAB      -1.060000
      6 C5           0.4710     0.4320     0.0440 cc         1 QAB      -0.001300
      7 C6           1.2490    -0.6780     0.1190 cd         1 QAB      -0.261300
      8 C7          -1.1880    -1.2030     0.2050 cd         1 QAB       0.219000
      9 C10          1.1070     1.7910    -0.0720 c6         1 QAB      -0.010100
     10 C11          2.5980     1.7510     0.2510 c6         1 QAB      -0.075400
     11 C12          3.2960     0.5860    -0.4380 c6         1 QAB      -0.069400
     12 C13          2.7420    -0.7430     0.0690 c6         1 QAB       0.020900
     13 OXT         -3.2360     0.7070     0.0110 o          1 QAB      -0.733000
     14 HN3         -2.4670    -2.7450    -0.1090 hn         1 QAB       0.460000
     15 HN3A        -3.1500    -1.2120     0.1520 hn         1 QAB       0.460000
     16 H10          0.9550     2.1770    -1.0850 hc         1 QAB       0.068700
     17 H10A         0.6010     2.4970     0.5850 hc         1 QAB       0.068700
     18 H11          3.0580     2.6980    -0.0420 hc         1 QAB       0.025700
     19 H11A         2.7360     1.6610     1.3340 hc         1 QAB       0.025700
     20 H12          3.1430     0.6580    -1.5190 hc         1 QAB       0.025200
     21 H12A         4.3740     0.6250    -0.2690 hc         1 QAB       0.025200
     22 H13          3.1520    -0.9590     1.0630 hc         1 QAB       0.026200
     23 H13A         3.0750    -1.5600    -0.5770 hc         1 QAB       0.026200
@<TRIPOS>BOND
     1     1     4 1   
     2     1     6 1   
     3     1     8 2   
     4     2     4 1   
     5     3     7 1   
     6     3     8 1   
     7     4    13 1   
     8     5     8 1   
     9     5    14 1   
    10     5    15 1   
    11     6     7 2   
    12     6     9 1   
    13     7    12 1   
    14     9    10 1   
    15     9    16 1   
    16     9    17 1   
    17    10    11 1   
    18    10    18 1   
    19    10    19 1   
    20    11    12 1   
    21    11    20 1   
    22    11    21 1   
    23    12    22 1   
    24    12    23 1   
@<TRIPOS>SUBSTRUCTURE
     1 QAB         1 TEMP              0 ****  ****    0 ROOT
