@<TRIPOS>MOLECULE
QAC
   28    28     1     0     0
SMALL
No Charge or Current Charge


@<TRIPOS>ATOM
      1 C1          -2.1890    -1.4650     0.2230 ca         1 QAC      -0.079000
      2 C2          -3.5270    -1.0620     0.0750 ca         1 QAC      -0.112000
      3 C3          -3.8390     0.2670    -0.2640 ca         1 QAC      -0.085300
      4 C4          -5.2900     0.7020    -0.4300 c3         1 QAC       0.209900
      5 O1          -5.8170     1.1690     0.8160 oh         1 QAC      -0.655000
      6 C5          -2.7930     1.1880    -0.4530 ca         1 QAC      -0.112000
      7 C6          -1.4520     0.7900    -0.3070 ca         1 QAC      -0.079000
      8 C7          -1.1300    -0.5470     0.0350 ca         1 QAC      -0.131600
      9 C8           0.3030    -1.0170     0.2030 c          1 QAC       0.595700
     10 O2           0.5820    -2.1720     0.4980 o          1 QAC      -0.620100
     11 N1           1.2920    -0.0780     0.0060 ns         1 QAC      -0.490900
     12 C9           2.7230    -0.3480     0.1240 c3         1 QAC       0.112000
     13 C10          3.5520     0.9160    -0.1610 c3         1 QAC      -0.230400
     14 C11          5.0390     0.5710    -0.0230 c          1 QAC       0.724000
     15 O3           5.6260     0.1550    -1.0100 o          1 QAC      -0.733000
     16 H1          -1.9780    -2.4990     0.4870 ha         1 QAC       0.127000
     17 H2          -4.3250    -1.7860     0.2270 ha         1 QAC       0.113000
     18 H3          -5.3470     1.4950    -1.1880 h1         1 QAC       0.021200
     19 H4          -5.8830    -0.1470    -0.7990 h1         1 QAC       0.021200
     20 H5          -6.7480     1.4330     0.6460 ho         1 QAC       0.438000
     21 H6          -3.0190     2.2190    -0.7150 ha         1 QAC       0.113000
     22 H7          -0.6770     1.5360    -0.4620 ha         1 QAC       0.127000
     23 H8           0.9990     0.8590    -0.2360 hn         1 QAC       0.301500
     24 H9           2.9350    -0.7100     1.1390 h1         1 QAC       0.059200
     25 H10          2.9960    -1.1390    -0.5880 h1         1 QAC       0.059200
     26 H11          3.3140     1.2090    -1.1910 hc         1 QAC       0.019700
     27 H12          3.2510     1.6530     0.5940 hc         1 QAC       0.019700
     28 OXT          5.5530     0.6750     1.0800 o          1 QAC      -0.733000
@<TRIPOS>BOND
     1     1     2 ar  
     2     1     8 ar  
     3     1    16 1   
     4     2     3 ar  
     5     2    17 1   
     6     3     4 1   
     7     3     6 ar  
     8     4     5 1   
     9     4    18 1   
    10     4    19 1   
    11     5    20 1   
    12     6     7 ar  
    13     6    21 1   
    14     7     8 ar  
    15     7    22 1   
    16     8     9 1   
    17     9    10 2   
    18     9    11 1   
    19    11    12 1   
    20    11    23 1   
    21    12    13 1   
    22    12    24 1   
    23    12    25 1   
    24    13    14 1   
    25    13    26 1   
    26    13    27 1   
    27    14    15 1   
    28    14    28 1   
@<TRIPOS>SUBSTRUCTURE
     1 QAC         1 TEMP              0 ****  ****    0 ROOT
