@<TRIPOS>MOLECULE
QAC
   28    28     1     0     0
SMALL
bcc


@<TRIPOS>ATOM
      1 C1          -2.1660    -1.3490     0.1670 ca         1 QAC      -0.097000
      2 C2          -3.4780    -0.9360     0.0000 ca         1 QAC      -0.130000
      3 C3          -3.7850     0.4160    -0.1240 ca         1 QAC      -0.085300
      4 C4          -5.1910     0.8960    -0.3520 c3         1 QAC       0.186700
      5 O1          -6.1110    -0.0430     0.1410 oh         1 QAC      -0.592800
      6 C5          -2.7440     1.3400    -0.0720 ca         1 QAC      -0.130000
      7 C6          -1.4310     0.9270     0.0770 ca         1 QAC      -0.097000
      8 C7          -1.1240    -0.4270     0.1910 ca         1 QAC      -0.131600
      9 C8           0.2720    -0.9290     0.3800 c          1 QAC       0.662700
     10 O2           0.4890    -2.0000     0.9380 o          1 QAC      -0.620100
     11 N1           1.2510    -0.1450    -0.0920 ns         1 QAC      -0.557900
     12 C9           2.6610    -0.4690     0.0330 c3         1 QAC       0.112000
     13 C10          3.5040     0.7580    -0.2630 c3         1 QAC      -0.230400
     14 C11          5.0220     0.5380    -0.1290 c          1 QAC       0.934600
     15 O3           5.4170    -0.6200     0.1090 o          1 QAC      -0.838300
     16 H1          -1.9510    -2.4050     0.2700 ha         1 QAC       0.145000
     17 H2          -4.2630    -1.6790    -0.0310 ha         1 QAC       0.131000
     18 H3          -5.3150     1.8780     0.1230 h1         1 QAC       0.021200
     19 H4          -5.3260     1.0590    -1.4300 h1         1 QAC       0.021200
     20 H5          -6.9860     0.2010    -0.1730 ho         1 QAC       0.399000
     21 H6          -2.9600     2.4000    -0.1400 ha         1 QAC       0.131000
     22 H7          -0.6550     1.6810     0.1350 ha         1 QAC       0.145000
     23 H8           1.0080     0.6440    -0.6670 hn         1 QAC       0.301500
     24 H9           2.8520    -0.8280     1.0440 h1         1 QAC       0.059200
     25 H10          2.9250    -1.2840    -0.6470 h1         1 QAC       0.059200
     26 H11          3.2990     1.1110    -1.2800 hc         1 QAC       0.019700
     27 H12          3.2060     1.5790     0.3970 hc         1 QAC       0.019700
     28 OXT          5.7320     1.5520    -0.2800 o          1 QAC      -0.838300
@<TRIPOS>BOND
     1     1     2 ar  
     2     1     8 ar  
     3     1    16 1   
     4     2     3 ar  
     5     2    17 1   
     6     3     4 1   
     7     3     6 ar  
     8     4     5 1   
     9     4    18 1   
    10     4    19 1   
    11     5    20 1   
    12     6     7 ar  
    13     6    21 1   
    14     7     8 ar  
    15     7    22 1   
    16     8     9 1   
    17     9    10 2   
    18     9    11 1   
    19    11    12 1   
    20    11    23 1   
    21    12    13 1   
    22    12    24 1   
    23    12    25 1   
    24    13    14 1   
    25    13    26 1   
    26    13    27 1   
    27    14    15 1   
    28    14    28 1   
@<TRIPOS>SUBSTRUCTURE
     1 QAC         1 TEMP              0 ****  ****    0 ROOT
