@<TRIPOS>MOLECULE
QAD
   33    34     1     0     0
SMALL
No Charge or Current Charge


@<TRIPOS>ATOM
      1 O1          51.9520     6.1780   -20.2820 o          1 QAD      -0.735500
      2 C11         50.7610     6.0000   -20.4770 c          1 QAD       0.720000
      3 O2          50.3020     5.0250   -21.0490 o          1 QAD      -0.735500
      4 C10         49.7760     7.0280   -19.8940 c3         1 QAD      -0.209400
      5 C9          49.3310     6.6300   -18.4570 c3         1 QAD      -0.123400
      6 C8          50.4950     6.6640   -17.4360 c          1 QAD       0.642300
      7 O           50.8340     7.7400   -16.9510 o          1 QAD      -0.543100
      8 C6          51.1680     5.3970   -17.0400 cc         1 QAD      -0.087600
      9 S           52.4730     5.3780   -15.8210 ss         1 QAD       0.125400
     10 C4          52.5940     3.6040   -16.0070 ca         1 QAD      -0.176000
     11 C5          53.4820     2.7740   -15.3070 ca         1 QAD      -0.151000
     12 C           53.4670     1.3790   -15.5650 ca         1 QAD       0.114100
     13 O4          54.3200     0.5090   -14.9050 os         1 QAD      -0.329100
     14 C13         55.2700     0.9570   -13.9220 c3         1 QAD       0.148900
     15 C7          50.9080     4.1200   -17.5200 cd         1 QAD      -0.145200
     16 C3          51.7180     3.0830   -16.9320 ca         1 QAD      -0.072800
     17 C2          51.6750     1.7120   -17.2130 ca         1 QAD      -0.138000
     18 C1          52.5590     0.8460   -16.5220 ca         1 QAD       0.098100
     19 O3          52.5660    -0.5210   -16.7540 os         1 QAD      -0.330100
     20 C12         51.6850    -1.1480   -17.7030 c3         1 QAD       0.148900
     21 H5          50.2530     8.0130   -19.8070 hc         1 QAD       0.029200
     22 H6          48.8540     7.0410   -20.4880 hc         1 QAD       0.029200
     23 H3          48.5690     7.3500   -18.1350 hc         1 QAD       0.032200
     24 H4          48.8800     5.6340   -18.5060 hc         1 QAD       0.032200
     25 H1          54.1620     3.2160   -14.5850 ha         1 QAD       0.120000
     26 H11         55.8390     0.1060   -13.5280 h1         1 QAD       0.035367
     27 H12         55.9810     1.6670   -14.3630 h1         1 QAD       0.035367
     28 H13         54.7600     1.4440   -13.0810 h1         1 QAD       0.035367
     29 H2          50.1680     3.8990   -18.2840 ha         1 QAD       0.206000
     30 H           50.9680     1.3430   -17.9510 ha         1 QAD       0.119000
     31 H10         51.8590    -2.2300   -17.7250 h1         1 QAD       0.034700
     32 H8          50.6350    -0.9780   -17.4310 h1         1 QAD       0.034700
     33 H9          51.8570    -0.7540   -18.7130 h1         1 QAD       0.034700
@<TRIPOS>BOND
     1     1     2 1   
     2     2     3 1   
     3     2     4 1   
     4     4     5 1   
     5     4    21 1   
     6     4    22 1   
     7     5     6 1   
     8     5    23 1   
     9     5    24 1   
    10     6     7 2   
    11     6     8 1   
    12     8     9 1   
    13     8    15 2   
    14     9    10 1   
    15    10    11 ar  
    16    10    16 ar  
    17    11    12 ar  
    18    11    25 1   
    19    12    13 1   
    20    12    18 ar  
    21    13    14 1   
    22    14    26 1   
    23    14    27 1   
    24    14    28 1   
    25    15    16 1   
    26    15    29 1   
    27    16    17 ar  
    28    17    18 ar  
    29    17    30 1   
    30    18    19 1   
    31    19    20 1   
    32    20    31 1   
    33    20    32 1   
    34    20    33 1   
@<TRIPOS>SUBSTRUCTURE
     1 QAD         1 TEMP              0 ****  ****    0 ROOT
