@<TRIPOS>MOLECULE
QAD
   33    34     1     0     0
SMALL
abcg2


@<TRIPOS>ATOM
      1 O1          51.6260     6.4970   -20.4060 o          1 QAD      -0.735500
      2 C11         50.7590     7.3430   -20.7110 c          1 QAD       0.720000
      3 O2          50.8200     8.1870   -21.6240 o          1 QAD      -0.735500
      4 C10         49.4750     7.3540   -19.8580 c3         1 QAD      -0.209400
      5 C9          49.4390     6.2370   -18.8300 c3         1 QAD      -0.123400
      6 C8          50.6080     6.3010   -17.8840 c          1 QAD       0.642300
      7 O           51.0170     7.3530   -17.4290 o          1 QAD      -0.543100
      8 C6          51.2090     5.0470   -17.4190 cc         1 QAD      -0.087600
      9 S           52.5310     5.1790   -16.2940 ss         1 QAD       0.125400
     10 C4          52.6560     3.4580   -16.1910 ca         1 QAD      -0.176000
     11 C5          53.5670     2.7300   -15.4210 ca         1 QAD      -0.151000
     12 C           53.5050     1.3520   -15.4490 ca         1 QAD       0.114100
     13 O4          54.3160     0.5390   -14.7580 os         1 QAD      -0.329100
     14 C13         55.3450     1.1190   -13.9810 c3         1 QAD       0.148900
     15 C7          50.8860     3.7540   -17.6920 cd         1 QAD      -0.145200
     16 C3          51.7020     2.8200   -16.9900 ca         1 QAD      -0.072800
     17 C2          51.6470     1.4140   -17.0130 ca         1 QAD      -0.138000
     18 C1          52.5280     0.6860   -16.2510 ca         1 QAD       0.098100
     19 O3          52.5670    -0.6560   -16.1850 os         1 QAD      -0.330100
     20 C12         51.6390    -1.3860   -16.9590 c3         1 QAD       0.148900
     21 H5          49.3830     8.3260   -19.3660 hc         1 QAD       0.029200
     22 H6          48.6020     7.2730   -20.5120 hc         1 QAD       0.029200
     23 H3          48.5330     6.3100   -18.2160 hc         1 QAD       0.032200
     24 H4          49.3910     5.2680   -19.3260 hc         1 QAD       0.032200
     25 H1          54.2980     3.2470   -14.8140 ha         1 QAD       0.120000
     26 H11         55.8920     0.2950   -13.5300 h1         1 QAD       0.035367
     27 H12         56.0330     1.7090   -14.5920 h1         1 QAD       0.035367
     28 H13         54.9460     1.7550   -13.1860 h1         1 QAD       0.035367
     29 H2          50.0920     3.4590   -18.3630 ha         1 QAD       0.206000
     30 H           50.9050     0.9300   -17.6340 ha         1 QAD       0.119000
     31 H10         51.8280    -2.4370   -16.7570 h1         1 QAD       0.034700
     32 H8          50.6060    -1.1550   -16.6840 h1         1 QAD       0.034700
     33 H9          51.7670    -1.2030   -18.0290 h1         1 QAD       0.034700
@<TRIPOS>BOND
     1     1     2 1   
     2     2     3 1   
     3     2     4 1   
     4     4     5 1   
     5     4    21 1   
     6     4    22 1   
     7     5     6 1   
     8     5    23 1   
     9     5    24 1   
    10     6     7 2   
    11     6     8 1   
    12     8     9 1   
    13     8    15 2   
    14     9    10 1   
    15    10    11 ar  
    16    10    16 ar  
    17    11    12 ar  
    18    11    25 1   
    19    12    13 1   
    20    12    18 ar  
    21    13    14 1   
    22    14    26 1   
    23    14    27 1   
    24    14    28 1   
    25    15    16 1   
    26    15    29 1   
    27    16    17 ar  
    28    17    18 ar  
    29    17    30 1   
    30    18    19 1   
    31    19    20 1   
    32    20    31 1   
    33    20    32 1   
    34    20    33 1   
@<TRIPOS>SUBSTRUCTURE
     1 QAD         1 TEMP              0 ****  ****    0 ROOT
