@<TRIPOS>MOLECULE
QAE
   41    43     1     0     0
SMALL
No Charge or Current Charge


@<TRIPOS>ATOM
      1 S1          95.8150    48.2440    12.0290 ss         1 QAE      -0.031400
      2 C2          98.3690    46.5970     7.5670 c3         1 QAE      -0.090100
      3 C3          97.2680    47.4180     6.8640 c3         1 QAE      -0.073400
      4 C4          96.2230    48.0360     7.8230 c3         1 QAE      -0.077400
      5 C5          96.7930    49.1140     8.7780 c3         1 QAE      -0.072400
      6 C7          95.0160    48.8400    10.5970 cc         1 QAE       0.449700
      7 C9          92.0820    46.8240    11.3300 c3         1 QAE       0.076700
      8 C10         91.5330    46.2190     8.9840 cc         1 QAE       0.525800
      9 C11         91.7880    44.1080     8.0940 ca         1 QAE       0.188400
     10 C12         91.6750    43.2380     6.9930 ca         1 QAE      -0.098000
     11 C16         92.2780    43.6020     9.3110 ca         1 QAE      -0.198600
     12 C6          95.7180    49.7880     9.6640 c3         1 QAE      -0.116700
     13 N1          93.7880    48.3900    10.3790 nd         1 QAE      -0.651000
     14 C8          93.4280    47.5030    11.3830 cd         1 QAE       0.246300
     15 N2          91.9760    45.8250    10.2380 n          1 QAE      -0.328300
     16 N3          91.4060    45.4410     7.9040 nd         1 QAE      -0.627100
     17 C13         92.0430    41.8860     7.0970 ca         1 QAE      -0.069000
     18 C14         92.5310    41.3890     8.3130 ca         1 QAE       0.090000
     19 Cl1         92.9950    39.6980     8.4510 cl         1 QAE      -0.195000
     20 C15         92.6500    42.2430     9.4200 ca         1 QAE      -0.034000
     21 C17         92.3980    44.5200    10.4690 c          1 QAE       0.575600
     22 O1          92.8370    44.1500    11.5510 o          1 QAE      -0.532000
     23 C18         94.3880    47.3000    12.3470 cc         1 QAE      -0.228000
     24 H5          99.0200    46.1210     6.8240 hc         1 QAE       0.031700
     25 H3          98.9940    47.2350     8.2030 hc         1 QAE       0.031700
     26 H4          97.9280    45.8090     8.1900 hc         1 QAE       0.031700
     27 H6          97.7340    48.2130     6.2690 hc         1 QAE       0.038200
     28 H7          96.7450    46.7620     6.1560 hc         1 QAE       0.038200
     29 H8          95.4240    48.4850     7.2200 hc         1 QAE       0.045200
     30 H9          95.7590    47.2310     8.4070 hc         1 QAE       0.045200
     31 H10         97.5570    48.6680     9.4260 hc         1 QAE       0.044700
     32 H11         97.2950    49.8880     8.1840 hc         1 QAE       0.044700
     33 H15         91.3090    47.5920    11.1940 h1         1 QAE       0.073700
     34 H14         91.8810    46.3440    12.2960 h1         1 QAE       0.073700
     35 H16         91.2670    47.2680     8.9180 h5         1 QAE       0.053800
     36 H17         91.2980    43.6180     6.0460 ha         1 QAE       0.138000
     37 H12         96.1920    50.5810    10.2540 hc         1 QAE       0.066200
     38 H13         94.9820    50.2870     9.0210 hc         1 QAE       0.066200
     39 H18         91.9500    41.2260     6.2370 ha         1 QAE       0.132000
     40 H19         93.0310    41.8460    10.3590 ha         1 QAE       0.150000
     41 H20         94.3490    46.6520    13.2120 h4         1 QAE       0.168000
@<TRIPOS>BOND
     1     1     6 1   
     2     1    23 1   
     3     2     3 1   
     4     2    24 1   
     5     2    25 1   
     6     2    26 1   
     7     3     4 1   
     8     3    27 1   
     9     3    28 1   
    10     4     5 1   
    11     4    29 1   
    12     4    30 1   
    13     5    12 1   
    14     5    31 1   
    15     5    32 1   
    16     6    12 1   
    17     6    13 2   
    18     7    14 1   
    19     7    15 1   
    20     7    33 1   
    21     7    34 1   
    22     8    15 1   
    23     8    16 2   
    24     8    35 1   
    25     9    10 ar  
    26     9    11 ar  
    27     9    16 1   
    28    10    17 ar  
    29    10    36 1   
    30    11    20 ar  
    31    11    21 1   
    32    12    37 1   
    33    12    38 1   
    34    13    14 1   
    35    14    23 2   
    36    15    21 1   
    37    17    18 ar  
    38    17    39 1   
    39    18    19 1   
    40    18    20 ar  
    41    20    40 1   
    42    21    22 2   
    43    23    41 1   
@<TRIPOS>SUBSTRUCTURE
     1 QAE         1 TEMP              0 ****  ****    0 ROOT
