@<TRIPOS>MOLECULE
QAE
   41    43     1     0     0
SMALL
bcc


@<TRIPOS>ATOM
      1 S1          95.7320    48.4870    11.7110 ss         1 QAE      -0.176300
      2 C2          98.5600    46.5130     8.1520 c3         1 QAE      -0.090100
      3 C3          97.4060    46.8440     7.2140 c3         1 QAE      -0.073400
      4 C4          96.2240    47.5180     7.9040 c3         1 QAE      -0.077400
      5 C5          96.5490    48.8890     8.4850 c3         1 QAE      -0.072400
      6 C7          94.7950    48.7640    10.2770 cc         1 QAE       0.449700
      7 C9          92.1730    46.7020    11.6030 c3         1 QAE       0.076700
      8 C10         91.1590    46.2380     9.4390 cc         1 QAE       0.525800
      9 C11         91.5880    44.4000     8.1880 ca         1 QAE       0.188400
     10 C12         91.3870    43.6690     7.0090 ca         1 QAE      -0.116000
     11 C16         92.4450    43.8800     9.1670 ca         1 QAE      -0.198600
     12 C6          95.3410    49.5630     9.1430 c3         1 QAE      -0.116700
     13 N1          93.6440    48.1730    10.2900 nd         1 QAE      -0.651000
     14 C8          93.4510    47.4600    11.4410 cd         1 QAE       0.311600
     15 N2          91.9570    45.8200    10.4610 n          1 QAE      -0.395300
     16 N3          90.9440    45.6020     8.3490 nd         1 QAE      -0.627100
     17 C13         92.0230    42.4650     6.8180 ca         1 QAE      -0.087000
     18 C14         92.8760    41.9660     7.8080 ca         1 QAE      -0.001600
     19 CL1         93.6680    40.4500     7.5490 cl         1 QAE      -0.103400
     20 C15         93.0930    42.6580     8.9750 ca         1 QAE      -0.052000
     21 C17         92.6680    44.6340    10.3970 c          1 QAE       0.718100
     22 O1          93.4030    44.2870    11.3010 o          1 QAE      -0.607500
     23 C18         94.4720    47.5040    12.3300 cc         1 QAE      -0.166400
     24 H5          99.3430    45.9580     7.6330 hc         1 QAE       0.031700
     25 H3          99.0190    47.4090     8.5700 hc         1 QAE       0.031700
     26 H4          98.2200    45.8990     8.9890 hc         1 QAE       0.031700
     27 H6          97.7640    47.4810     6.3990 hc         1 QAE       0.038200
     28 H7          97.0550    45.9220     6.7420 hc         1 QAE       0.038200
     29 H8          95.4030    47.6250     7.1890 hc         1 QAE       0.045200
     30 H9          95.8500    46.8600     8.6950 hc         1 QAE       0.045200
     31 H10         97.3570    48.8120     9.2170 hc         1 QAE       0.044700
     32 H11         96.9210    49.5440     7.6920 hc         1 QAE       0.044700
     33 H15         91.3250    47.3860    11.6530 h1         1 QAE       0.073700
     34 H14         92.1750    46.1180    12.5210 h1         1 QAE       0.073700
     35 H16         90.6720    47.1930     9.6010 h5         1 QAE       0.053800
     36 H17         90.7260    44.0670     6.2500 ha         1 QAE       0.156000
     37 H12         95.6220    50.5590     9.4930 hc         1 QAE       0.066200
     38 H13         94.5380    49.6910     8.4140 hc         1 QAE       0.066200
     39 H18         91.8650    41.9060     5.9050 ha         1 QAE       0.150000
     40 H19         93.7520    42.2680     9.7390 ha         1 QAE       0.168000
     41 H20         94.5450    47.0140    13.2890 h4         1 QAE       0.186000
@<TRIPOS>BOND
     1     1     6 1   
     2     1    23 1   
     3     2     3 1   
     4     2    24 1   
     5     2    25 1   
     6     2    26 1   
     7     3     4 1   
     8     3    27 1   
     9     3    28 1   
    10     4     5 1   
    11     4    29 1   
    12     4    30 1   
    13     5    12 1   
    14     5    31 1   
    15     5    32 1   
    16     6    12 1   
    17     6    13 2   
    18     7    14 1   
    19     7    15 1   
    20     7    33 1   
    21     7    34 1   
    22     8    15 1   
    23     8    16 2   
    24     8    35 1   
    25     9    10 ar  
    26     9    11 ar  
    27     9    16 1   
    28    10    17 ar  
    29    10    36 1   
    30    11    20 ar  
    31    11    21 1   
    32    12    37 1   
    33    12    38 1   
    34    13    14 1   
    35    14    23 2   
    36    15    21 1   
    37    17    18 ar  
    38    17    39 1   
    39    18    19 1   
    40    18    20 ar  
    41    20    40 1   
    42    21    22 2   
    43    23    41 1   
@<TRIPOS>SUBSTRUCTURE
     1 QAE         1 TEMP              0 ****  ****    0 ROOT
