@<TRIPOS>MOLECULE
QAF
   38    39     1     0     0
SMALL
abcg2


@<TRIPOS>ATOM
      1 C01          7.7010     2.8230     0.7700 c3         1 QAF      -0.086100
      2 C02          7.4950     1.3460     0.4680 c3         1 QAF      -0.075400
      3 C03          6.0310     0.9930     0.2340 c3         1 QAF      -0.081400
      4 C04          5.8400    -0.4920    -0.0850 c3         1 QAF       0.070700
      5 C05          4.4390    -0.8610    -0.2570 c1         1 QAF      -0.364100
      6 C06          3.2680    -1.1410    -0.3690 cg         1 QAF       0.018700
      7 C07          1.9020    -1.5110    -0.4720 ce         1 QAF      -0.244700
      8 C08          1.4600    -2.8610    -0.2000 ce         1 QAF      -0.122000
      9 C09          0.1570    -3.1730    -0.1970 c2         1 QAF      -0.282200
     10 C10         -0.8870    -2.1170    -0.3320 c6         1 QAF       0.520700
     11 N11         -0.3480    -0.9560    -1.0050 nh         1 QAF      -0.621400
     12 C12         -1.3490     0.0590    -1.3120 c6         1 QAF       0.239800
     13 C13         -2.0150     0.6410    -0.0690 c6         1 QAF      -0.735700
     14 P14         -3.2850     1.9330    -0.5720 p5         1 QAF       1.326500
     15 O15         -2.4300     3.1310    -1.0100 o          1 QAF      -0.939500
     16 O16         -4.0740     1.3070    -1.7260 o          1 QAF      -0.939500
     17 O17         -4.1110     2.1930     0.6900 o          1 QAF      -0.939500
     18 P18         -2.6740    -0.6850     0.9860 p5         1 QAF       1.439400
     19 O19         -3.8280    -1.3870     0.3190 o          1 QAF      -0.838000
     20 O20         -1.3620    -1.7560     0.9520 os         1 QAF      -0.596400
     21 O21         -2.7570    -0.2940     2.4360 o          1 QAF      -0.838000
     22 C22          0.9470    -0.6240    -0.8840 c2         1 QAF       0.157000
     23 H01          8.7530     3.0510     0.9430 hc         1 QAF       0.023700
     24 H01A         7.3580     3.4470    -0.0570 hc         1 QAF       0.023700
     25 H01B         7.1460     3.1250     1.6600 hc         1 QAF       0.023700
     26 H02          8.0810     1.0650    -0.4120 hc         1 QAF       0.022200
     27 H02A         7.8820     0.7430     1.2950 hc         1 QAF       0.022200
     28 H03          5.4440     1.2520     1.1190 hc         1 QAF       0.052700
     29 H03A         5.6330     1.5940    -0.5880 hc         1 QAF       0.052700
     30 H04          6.4100    -0.7470    -0.9840 hc         1 QAF       0.011700
     31 H04A         6.2690    -1.0940     0.7230 hc         1 QAF       0.011700
     32 H08          2.2080    -3.6280    -0.0360 ha         1 QAF       0.125000
     33 H09         -0.1760    -4.1900    -0.0350 ha         1 QAF       0.149000
     34 H10         -1.7300    -2.4740    -0.9350 h2         1 QAF       0.059700
     35 H12         -0.8730     0.8540    -1.8890 h1         1 QAF       0.058700
     36 H12A        -2.1070    -0.3960    -1.9510 h1         1 QAF       0.058700
     37 H13         -1.2460     1.1580     0.5200 hc         1 QAF       0.051700
     38 H22          1.2100     0.3840    -1.1840 h4         1 QAF       0.185000
@<TRIPOS>BOND
     1     1     2 1   
     2     1    23 1   
     3     1    24 1   
     4     1    25 1   
     5     2     3 1   
     6     2    26 1   
     7     2    27 1   
     8     3     4 1   
     9     3    28 1   
    10     3    29 1   
    11     4     5 1   
    12     4    30 1   
    13     4    31 1   
    14     5     6 3   
    15     6     7 1   
    16     7     8 1   
    17     7    22 2   
    18     8     9 2   
    19     8    32 1   
    20     9    10 1   
    21     9    33 1   
    22    10    11 1   
    23    10    20 1   
    24    10    34 1   
    25    11    12 1   
    26    11    22 1   
    27    12    13 1   
    28    12    35 1   
    29    12    36 1   
    30    13    14 1   
    31    13    18 1   
    32    13    37 1   
    33    14    15 1   
    34    14    16 1   
    35    14    17 1   
    36    18    19 1   
    37    18    20 1   
    38    18    21 1   
    39    22    38 1   
@<TRIPOS>SUBSTRUCTURE
     1 QAF         1 TEMP              0 ****  ****    0 ROOT
