@<TRIPOS>MOLECULE
QAF
   38    39     1     0     0
SMALL
No Charge or Current Charge


@<TRIPOS>ATOM
      1 C01          8.0100     2.7330    -0.0360 c3         1 QAF      -0.086100
      2 C02          7.6220     1.3400     0.4960 c3         1 QAF      -0.075400
      3 C03          6.1670     0.9450     0.1580 c3         1 QAF      -0.081400
      4 C04          5.7790    -0.4520     0.6910 c3         1 QAF       0.070700
      5 C05          4.3940    -0.8150     0.3630 c1         1 QAF      -0.364100
      6 C06          3.2460    -1.0810     0.0730 cg         1 QAF       0.018700
      7 C07          1.8910    -1.3460    -0.2910 ce         1 QAF      -0.244700
      8 C08          1.4970    -2.7550    -0.3660 ce         1 QAF      -0.122000
      9 C09          0.1980    -3.0660    -0.5650 c2         1 QAF      -0.282200
     10 C10         -0.8850    -2.0010    -0.7060 c6         1 QAF       0.520700
     11 N11         -0.3090    -0.6660    -0.9520 nh         1 QAF      -0.621400
     12 C12         -1.3240     0.3720    -1.1420 c6         1 QAF       0.239800
     13 C13         -2.1150     0.5040     0.1430 c6         1 QAF      -0.735700
     14 P14         -3.4140     1.6760    -0.0910 p5         1 QAF       1.326500
     15 O15         -2.7410     2.9980    -0.2120 o          1 QAF      -0.939500
     16 O16         -4.1560     1.4170    -1.3540 o          1 QAF      -0.939500
     17 O17         -4.3440     1.7210     1.0680 o          1 QAF      -0.939500
     18 P18         -2.9220    -1.0350     0.5020 p5         1 QAF       1.439400
     19 O19         -3.8670    -1.5290    -0.5450 o          1 QAF      -0.838000
     20 O20         -1.5980    -1.9440     0.5110 os         1 QAF      -0.596400
     21 O21         -3.5140    -1.0760     1.8750 o          1 QAF      -0.838000
     22 C22          1.0010    -0.3700    -0.5730 c2         1 QAF       0.157000
     23 H01          9.0480     2.9670     0.2290 hc         1 QAF       0.023700
     24 H01A         7.9170     2.7710    -1.1280 hc         1 QAF       0.023700
     25 H01B         7.3630     3.5060     0.3950 hc         1 QAF       0.023700
     26 H02          8.3080     0.5940     0.0750 hc         1 QAF       0.022200
     27 H02A         7.7590     1.3230     1.5850 hc         1 QAF       0.022200
     28 H03          5.4850     1.6950     0.5780 hc         1 QAF       0.052700
     29 H03A         6.0350     0.9650    -0.9320 hc         1 QAF       0.052700
     30 H04          6.4540    -1.2080     0.2690 hc         1 QAF       0.011700
     31 H04A         5.9040    -0.4780     1.7810 hc         1 QAF       0.011700
     32 H08          2.2590    -3.5280    -0.2470 ha         1 QAF       0.125000
     33 H09         -0.1360    -4.1000    -0.6210 ha         1 QAF       0.149000
     34 H10         -1.5590    -2.2670    -1.5360 h2         1 QAF       0.059700
     35 H12         -0.8560     1.3290    -1.4210 h1         1 QAF       0.058700
     36 H12A        -1.9900     0.0840    -1.9710 h1         1 QAF       0.058700
     37 H13         -1.4840     0.8010     0.9840 hc         1 QAF       0.051700
     38 H22          1.2620     0.6900    -0.5330 h4         1 QAF       0.185000
@<TRIPOS>BOND
     1     1     2 1   
     2     1    23 1   
     3     1    24 1   
     4     1    25 1   
     5     2     3 1   
     6     2    26 1   
     7     2    27 1   
     8     3     4 1   
     9     3    28 1   
    10     3    29 1   
    11     4     5 1   
    12     4    30 1   
    13     4    31 1   
    14     5     6 3   
    15     6     7 1   
    16     7     8 1   
    17     7    22 2   
    18     8     9 2   
    19     8    32 1   
    20     9    10 1   
    21     9    33 1   
    22    10    11 1   
    23    10    20 1   
    24    10    34 1   
    25    11    12 1   
    26    11    22 1   
    27    12    13 1   
    28    12    35 1   
    29    12    36 1   
    30    13    14 1   
    31    13    18 1   
    32    13    37 1   
    33    14    15 1   
    34    14    16 1   
    35    14    17 1   
    36    18    19 1   
    37    18    20 1   
    38    18    21 1   
    39    22    38 1   
@<TRIPOS>SUBSTRUCTURE
     1 QAF         1 TEMP              0 ****  ****    0 ROOT
