@<TRIPOS>MOLECULE
QAG
   48    51     1     0     0
SMALL
No Charge or Current Charge


@<TRIPOS>ATOM
      1 N            6.9880     3.4180    -0.1800 n1         1 QAG      -0.442000
      2 C           -0.9010     2.0240     2.5180 c3         1 QAG      -0.050300
      3 O           -2.0570     1.9010    -0.1220 os         1 QAG      -0.353400
      4 C1          -0.0930     2.2390     1.2410 ca         1 QAG      -0.058300
      5 C10         -0.7120     2.1850    -0.0260 ca         1 QAG       0.103100
      6 C11         -2.5120     0.6030    -0.0950 ca         1 QAG       0.431300
      7 C12         -3.8870     0.3550    -0.0480 ca         1 QAG      -0.357000
      8 C13         -6.3830     0.2020     0.0320 cc         1 QAG      -0.143400
      9 C14         -5.7420    -1.0250     0.0320 cd         1 QAG      -0.303800
     10 C15         -4.3090    -0.9480    -0.0130 ca         1 QAG       0.197800
     11 C16         -2.1680    -1.6730    -0.0540 ca         1 QAG       0.418900
     12 C17          0.1050    -2.8590    -0.0470 ca         1 QAG       0.380000
     13 C18          0.6910    -3.9730    -0.6580 ca         1 QAG      -0.237000
     14 C19          2.0850    -4.1320    -0.6510 ca         1 QAG       0.247000
     15 C2           1.2910     2.4800     1.3220 ca         1 QAG      -0.091500
     16 C20          2.9100    -3.1820    -0.0220 ca         1 QAG      -0.103000
     17 C21          4.3360    -3.3410    -0.0140 cg         1 QAG       0.334000
     18 C22          2.3230    -2.0710     0.6100 ca         1 QAG      -0.020000
     19 C23          0.9260    -1.9170     0.6010 ca         1 QAG      -0.167000
     20 C3           2.0620     2.6680     0.1590 ca         1 QAG      -0.061800
     21 C4           3.5290     2.9110     0.2880 ce         1 QAG      -0.105200
     22 C5           4.4810     2.9900    -0.6870 cf         1 QAG      -0.106700
     23 C6           5.8640     3.2240    -0.4300 ch         1 QAG       0.268700
     24 C7           1.4280     2.6230    -1.1000 ca         1 QAG      -0.091500
     25 C8           0.0440     2.3820    -1.2000 ca         1 QAG      -0.058300
     26 C9          -0.6210     2.3180    -2.5710 c3         1 QAG      -0.050300
     27 F            2.6220    -5.2150    -1.2600 f          1 QAG      -0.161000
     28 N1          -3.4750    -1.9980    -0.0160 nb         1 QAG      -0.232000
     29 N2          -1.2860    -2.7440    -0.0820 nu         1 QAG      -0.925900
     30 N3           5.4970    -3.4590    -0.0010 n1         1 QAG      -0.444000
     31 N4          -1.6460    -0.4330    -0.1070 nb         1 QAG      -0.306000
     32 S           -5.2080     1.5520    -0.0250 ss         1 QAG       0.159400
     33 H1          -1.8310     2.6040     2.5020 hc         1 QAG       0.052033
     34 H2          -1.1660     0.9670     2.6390 hc         1 QAG       0.052033
     35 H3          -0.3410     2.3290     3.4090 hc         1 QAG       0.052033
     36 H4          -7.4440     0.4270     0.0610 h4         1 QAG       0.222000
     37 H5          -6.2770    -1.9710     0.0640 ha         1 QAG       0.223000
     38 H6           0.0740    -4.7150    -1.1530 ha         1 QAG       0.137000
     39 H7           1.7720     2.5130     2.2970 ha         1 QAG       0.121500
     40 H8           2.9440    -1.3300     1.1120 ha         1 QAG       0.127000
     41 H9           0.4910    -1.0670     1.1140 ha         1 QAG       0.161000
     42 H10          3.8660     3.0320     1.3210 ha         1 QAG       0.187000
     43 H11          4.2090     2.8680    -1.7330 ha         1 QAG       0.202000
     44 H12          2.0030     2.7720    -2.0090 ha         1 QAG       0.121500
     45 H13         -1.4880     2.9870    -2.6200 hc         1 QAG       0.052033
     46 H14          0.0660     2.6110    -3.3740 hc         1 QAG       0.052033
     47 H15         -0.9700     1.3010    -2.7890 hc         1 QAG       0.052033
     48 H16         -1.7610    -3.6270    -0.2640 hn         1 QAG       0.517000
@<TRIPOS>BOND
     1     1    23 3   
     2     2     4 1   
     3     2    33 1   
     4     2    34 1   
     5     2    35 1   
     6     3     5 1   
     7     3     6 1   
     8     4     5 ar  
     9     4    15 ar  
    10     5    25 ar  
    11     6     7 ar  
    12     6    31 ar  
    13     7    10 ar  
    14     7    32 1   
    15     8     9 2   
    16     8    32 1   
    17     8    36 1   
    18     9    10 1   
    19     9    37 1   
    20    10    28 ar  
    21    11    28 ar  
    22    11    29 1   
    23    11    31 ar  
    24    12    13 ar  
    25    12    19 ar  
    26    12    29 1   
    27    13    14 ar  
    28    13    38 1   
    29    14    16 ar  
    30    14    27 1   
    31    15    20 ar  
    32    15    39 1   
    33    16    17 1   
    34    16    18 ar  
    35    17    30 3   
    36    18    19 ar  
    37    18    40 1   
    38    19    41 1   
    39    20    21 1   
    40    20    24 ar  
    41    21    22 2   
    42    21    42 1   
    43    22    23 1   
    44    22    43 1   
    45    24    25 ar  
    46    24    44 1   
    47    25    26 1   
    48    26    45 1   
    49    26    46 1   
    50    26    47 1   
    51    29    48 1   
@<TRIPOS>SUBSTRUCTURE
     1 QAG         1 TEMP              0 ****  ****    0 ROOT
