@<TRIPOS>MOLECULE
QAG
   48    51     1     0     0
SMALL
abcg2


@<TRIPOS>ATOM
      1 N            6.8840     2.7250    -0.0640 n1         1 QAG      -0.442000
      2 C           -0.9720     2.1280     2.6240 c3         1 QAG      -0.050300
      3 O           -2.0860     1.9330     0.0430 os         1 QAG      -0.353400
      4 C1          -0.1430     2.2380     1.3800 ca         1 QAG      -0.058300
      5 C10         -0.7150     2.1210     0.1210 ca         1 QAG       0.103100
      6 C11         -2.5200     0.6730    -0.0080 ca         1 QAG       0.431300
      7 C12         -3.8860     0.4230    -0.0420 ca         1 QAG      -0.357000
      8 C13         -6.3080     0.1520    -0.0850 cc         1 QAG      -0.143400
      9 C14         -5.6940    -1.0540    -0.1120 cd         1 QAG      -0.303800
     10 C15         -4.2700    -0.9240    -0.0890 ca         1 QAG       0.197800
     11 C16         -2.1170    -1.5540    -0.0830 ca         1 QAG       0.418900
     12 C17          0.1700    -2.5770    -0.1660 ca         1 QAG       0.380000
     13 C18          0.7800    -3.8280    -0.3350 ca         1 QAG      -0.237000
     14 C19          2.1470    -3.9170    -0.3870 ca         1 QAG       0.247000
     15 C2           1.2310     2.4270     1.4380 ca         1 QAG      -0.091500
     16 C20          2.9710    -2.8030    -0.2770 ca         1 QAG      -0.103000
     17 C21          4.3830    -2.9380    -0.3410 cg         1 QAG       0.334000
     18 C22          2.3540    -1.5640    -0.1050 ca         1 QAG      -0.020000
     19 C23          0.9820    -1.4380    -0.0470 ca         1 QAG      -0.167000
     20 C3           2.0120     2.4710     0.2850 ca         1 QAG      -0.061800
     21 C4           3.4540     2.6110     0.4340 ce         1 QAG      -0.105200
     22 C5           4.3700     2.4500    -0.5320 cf         1 QAG      -0.106700
     23 C6           5.7540     2.6050    -0.2630 ch         1 QAG       0.268700
     24 C7           1.3850     2.3680    -0.9580 ca         1 QAG      -0.091500
     25 C8           0.0150     2.1920    -1.0630 ca         1 QAG      -0.058300
     26 C9          -0.6530     2.0530    -2.3960 c3         1 QAG      -0.050300
     27 F            2.7160    -5.1120    -0.5530 f          1 QAG      -0.161000
     28 N1          -3.3820    -1.9240    -0.1090 nb         1 QAG      -0.232000
     29 N2          -1.2070    -2.5790    -0.1270 nu         1 QAG      -0.925900
     30 N3           5.5300    -3.0360    -0.3880 n1         1 QAG      -0.444000
     31 N4          -1.6540    -0.3050    -0.0260 nb         1 QAG      -0.306000
     32 S           -5.2310     1.4970    -0.0280 ss         1 QAG       0.159400
     33 H1          -1.8400     2.7870     2.5980 hc         1 QAG       0.052033
     34 H2          -1.3380     1.1090     2.7660 hc         1 QAG       0.052033
     35 H3          -0.3860     2.3870     3.5030 hc         1 QAG       0.052033
     36 H4          -7.3710     0.3350    -0.0940 h4         1 QAG       0.222000
     37 H5          -6.2120    -1.9990    -0.1500 ha         1 QAG       0.223000
     38 H6           0.1900    -4.7300    -0.4340 ha         1 QAG       0.137000
     39 H7           1.7070     2.5220     2.4060 ha         1 QAG       0.121500
     40 H8           2.9670    -0.6780    -0.0110 ha         1 QAG       0.127000
     41 H9           0.5480    -0.4620     0.0860 ha         1 QAG       0.161000
     42 H10          3.8040     2.8500     1.4320 ha         1 QAG       0.187000
     43 H11          4.1200     2.1910    -1.5520 ha         1 QAG       0.202000
     44 H12          1.9660     2.4270    -1.8700 ha         1 QAG       0.121500
     45 H13         -1.5020     2.7280    -2.5010 hc         1 QAG       0.052033
     46 H14          0.0450     2.2710    -3.2020 hc         1 QAG       0.052033
     47 H15         -1.0200     1.0370    -2.5510 hc         1 QAG       0.052033
     48 H16         -1.6480    -3.4830    -0.1940 hn         1 QAG       0.517000
@<TRIPOS>BOND
     1     1    23 3   
     2     2     4 1   
     3     2    33 1   
     4     2    34 1   
     5     2    35 1   
     6     3     5 1   
     7     3     6 1   
     8     4     5 ar  
     9     4    15 ar  
    10     5    25 ar  
    11     6     7 ar  
    12     6    31 ar  
    13     7    10 ar  
    14     7    32 1   
    15     8     9 2   
    16     8    32 1   
    17     8    36 1   
    18     9    10 1   
    19     9    37 1   
    20    10    28 ar  
    21    11    28 ar  
    22    11    29 1   
    23    11    31 ar  
    24    12    13 ar  
    25    12    19 ar  
    26    12    29 1   
    27    13    14 ar  
    28    13    38 1   
    29    14    16 ar  
    30    14    27 1   
    31    15    20 ar  
    32    15    39 1   
    33    16    17 1   
    34    16    18 ar  
    35    17    30 3   
    36    18    19 ar  
    37    18    40 1   
    38    19    41 1   
    39    20    21 1   
    40    20    24 ar  
    41    21    22 2   
    42    21    42 1   
    43    22    23 1   
    44    22    43 1   
    45    24    25 ar  
    46    24    44 1   
    47    25    26 1   
    48    26    45 1   
    49    26    46 1   
    50    26    47 1   
    51    29    48 1   
@<TRIPOS>SUBSTRUCTURE
     1 QAG         1 TEMP              0 ****  ****    0 ROOT
