@<TRIPOS>MOLECULE
QAH
   41    41     1     0     0
SMALL
No Charge or Current Charge


@<TRIPOS>ATOM
      1 C1           8.3720    -5.0700    13.1140 c6         1 QAH       0.345300
      2 C2           9.9130    -4.8820    12.9640 c6         1 QAH       0.155300
      3 C7           6.6930    -6.0100    14.6580 c3         1 QAH       0.128300
      4 C3          10.2250    -4.0370    11.6800 c6         1 QAH       0.210300
      5 C8           6.1440    -4.6890    15.2090 c2         1 QAH       0.416300
      6 C4           9.4970    -4.6540    10.4200 c6         1 QAH       0.108300
      7 C9           6.3480    -4.4660    16.7240 c3         1 QAH       0.122200
      8 C5           7.9840    -4.8940    10.7520 c6         1 QAH       0.184300
      9 C10          7.8120    -4.4210    17.1290 c2         1 QAH      -0.267200
     10 C6           7.2030    -5.5690     9.5740 c3         1 QAH       0.165600
     11 C11          8.5420    -5.4280    17.6440 c2         1 QAH      -0.289000
     12 N1           5.5140    -3.8370    14.4660 n2         1 QAH      -0.746100
     13 O1           8.0840    -5.8810    14.2690 os         1 QAH      -0.436000
     14 O1S         12.2900    -4.4770     9.2640 o          1 QAH      -0.706867
     15 O2          10.4870    -4.3050    14.1680 oh         1 QAH      -0.701000
     16 O2S         11.4590    -2.2000     9.7440 o          1 QAH      -0.706867
     17 O3          11.6690    -3.8680    11.5390 os         1 QAH      -0.584700
     18 O3S         13.6920    -2.8970    10.5470 o          1 QAH      -0.706867
     19 O4          10.1710    -5.8580     9.9780 oh         1 QAH      -0.736000
     20 O7           5.6620    -5.4430    17.5210 oh         1 QAH      -0.634000
     21 O5           7.8390    -5.7080    11.9420 os         1 QAH      -0.468000
     22 O6           5.7920    -5.7300     9.8360 oh         1 QAH      -0.724000
     23 S           12.3370    -3.3040    10.1500 s6         1 QAH       1.496300
     24 H1           7.9060    -4.0820    13.2390 h2         1 QAH       0.027700
     25 H2          10.3400    -5.8830    12.8040 h1         1 QAH       0.074700
     26 H3           6.0800    -6.3320    13.8070 h1         1 QAH       0.067700
     27 H4           6.5960    -6.7850    15.4280 h1         1 QAH       0.067700
     28 H5           9.7950    -3.0350    11.8350 h1         1 QAH       0.053700
     29 H6           9.5140    -3.9110     9.6100 h1         1 QAH       0.061700
     30 H7           5.9280    -3.4810    16.9670 h1         1 QAH       0.020700
     31 H8           7.5100    -3.9190    10.9410 h1         1 QAH       0.042700
     32 H9           8.2740    -3.4420    16.9740 ha         1 QAH       0.175000
     33 H10          7.6600    -6.5480     9.3730 h1         1 QAH       0.038700
     34 H11          7.3490    -4.9540     8.6750 h1         1 QAH       0.038700
     35 H12          9.5910    -5.2930    17.9130 ha         1 QAH       0.173500
     36 H13          8.1270    -6.4240    17.8110 ha         1 QAH       0.173500
     37 H14          5.2120    -3.0390    15.0430 hn         1 QAH       0.367400
     38 H15         10.0980    -4.8130    14.9180 ho         1 QAH       0.498000
     39 H16         11.0660    -5.5350     9.6540 ho         1 QAH       0.558000
     40 H17          5.9430    -5.2880    18.4490 ho         1 QAH       0.443000
     41 H18          5.4170    -6.2410     9.0810 ho         1 QAH       0.491000
@<TRIPOS>BOND
     1     1     2 1   
     2     1    13 1   
     3     1    21 1   
     4     1    24 1   
     5     2     4 1   
     6     2    15 1   
     7     2    25 1   
     8     3     5 1   
     9     3    13 1   
    10     3    26 1   
    11     3    27 1   
    12     4     6 1   
    13     4    17 1   
    14     4    28 1   
    15     5     7 1   
    16     5    12 2   
    17     6     8 1   
    18     6    19 1   
    19     6    29 1   
    20     7     9 1   
    21     7    20 1   
    22     7    30 1   
    23     8    10 1   
    24     8    21 1   
    25     8    31 1   
    26     9    11 2   
    27     9    32 1   
    28    10    22 1   
    29    10    33 1   
    30    10    34 1   
    31    11    35 1   
    32    11    36 1   
    33    12    37 1   
    34    14    23 1   
    35    15    38 1   
    36    16    23 1   
    37    17    23 1   
    38    18    23 1   
    39    19    39 1   
    40    20    40 1   
    41    22    41 1   
@<TRIPOS>SUBSTRUCTURE
     1 QAH         1 TEMP              0 ****  ****    0 ROOT
