@<TRIPOS>MOLECULE
QAH
   41    41     1     0     0
SMALL
abcg2


@<TRIPOS>ATOM
      1 C1           7.9570    -4.8160    12.9030 c6         1 QAH       0.345300
      2 C2           9.4710    -4.6280    13.0150 c6         1 QAH       0.155300
      3 C7           6.1370    -5.2670    14.3490 c3         1 QAH       0.128300
      4 C3          10.0030    -4.0920    11.6910 c6         1 QAH       0.210300
      5 C8           5.9520    -4.4470    15.6000 c2         1 QAH       0.416300
      6 C4           9.5390    -4.9690    10.5180 c6         1 QAH       0.108300
      7 C9           6.6460    -4.9160    16.8720 c3         1 QAH       0.122200
      8 C5           8.0250    -5.1180    10.5880 c6         1 QAH       0.184300
      9 C10          7.9520    -4.1840    17.0440 c2         1 QAH      -0.267200
     10 C6           7.4840    -6.0000     9.4840 c3         1 QAH       0.165600
     11 C11          9.1480    -4.7550    17.1380 c2         1 QAH      -0.289000
     12 N1           5.2430    -3.4030    15.5350 n2         1 QAH      -0.746100
     13 O1           7.5170    -5.4160    14.0650 os         1 QAH      -0.436000
     14 O1S         12.4770    -4.7900     9.7330 o          1 QAH      -0.706867
     15 O2           9.7840    -3.7100    14.0270 oh         1 QAH      -0.701000
     16 O2S         11.6880    -2.4680     9.9150 o          1 QAH      -0.706867
     17 O3          11.4160    -4.0340    11.8330 os         1 QAH      -0.584700
     18 O3S         13.6080    -3.2400    11.2640 o          1 QAH      -0.706867
     19 O4          10.1410    -6.2350    10.5340 oh         1 QAH      -0.736000
     20 O7           6.7690    -6.3070    16.8290 oh         1 QAH      -0.634000
     21 O5           7.6290    -5.6570    11.8320 os         1 QAH      -0.468000
     22 O6           6.0800    -5.8960     9.4760 oh         1 QAH      -0.724000
     23 S           12.3710    -3.5830    10.5720 s6         1 QAH       1.496300
     24 H1           7.4840    -3.8260    12.7590 h2         1 QAH       0.027700
     25 H2           9.9210    -5.6150    13.2020 h1         1 QAH       0.074700
     26 H3           5.6030    -4.7680    13.5360 h1         1 QAH       0.067700
     27 H4           5.6920    -6.2570    14.4750 h1         1 QAH       0.067700
     28 H5           9.6010    -3.0820    11.5360 h1         1 QAH       0.053700
     29 H6           9.7550    -4.4370     9.5820 h1         1 QAH       0.061700
     30 H7           6.0030    -4.6030    17.7100 h1         1 QAH       0.020700
     31 H8           7.5960    -4.1100    10.4600 h1         1 QAH       0.042700
     32 H9           7.8580    -3.1060    17.1370 ha         1 QAH       0.175000
     33 H10          7.8160    -7.0320     9.6400 h1         1 QAH       0.038700
     34 H11          7.9220    -5.6590     8.5370 h1         1 QAH       0.038700
     35 H12         10.0330    -4.1580    17.3130 ha         1 QAH       0.173500
     36 H13          9.2920    -5.8240    17.0580 ha         1 QAH       0.173500
     37 H14          5.1650    -2.9460    16.4430 hn         1 QAH       0.367400
     38 H15          9.4560    -4.0590    14.8660 ho         1 QAH       0.498000
     39 H16         11.0590    -6.1020    10.2530 ho         1 QAH       0.558000
     40 H17          7.1040    -6.6140    17.6780 ho         1 QAH       0.443000
     41 H18          5.7400    -6.5040     8.8140 ho         1 QAH       0.491000
@<TRIPOS>BOND
     1     1     2 1   
     2     1    13 1   
     3     1    21 1   
     4     1    24 1   
     5     2     4 1   
     6     2    15 1   
     7     2    25 1   
     8     3     5 1   
     9     3    13 1   
    10     3    26 1   
    11     3    27 1   
    12     4     6 1   
    13     4    17 1   
    14     4    28 1   
    15     5     7 1   
    16     5    12 2   
    17     6     8 1   
    18     6    19 1   
    19     6    29 1   
    20     7     9 1   
    21     7    20 1   
    22     7    30 1   
    23     8    10 1   
    24     8    21 1   
    25     8    31 1   
    26     9    11 2   
    27     9    32 1   
    28    10    22 1   
    29    10    33 1   
    30    10    34 1   
    31    11    35 1   
    32    11    36 1   
    33    12    37 1   
    34    14    23 1   
    35    15    38 1   
    36    16    23 1   
    37    17    23 1   
    38    18    23 1   
    39    19    39 1   
    40    20    40 1   
    41    22    41 1   
@<TRIPOS>SUBSTRUCTURE
     1 QAH         1 TEMP              0 ****  ****    0 ROOT
