@<TRIPOS>MOLECULE
QAI
   46    49     1     0     0
SMALL
abcg2


@<TRIPOS>ATOM
      1 C13        -16.9240    72.8710    17.1030 ca         1 QAI      -0.003500
      2 C15        -15.2750    73.0070    18.8680 cp         1 QAI       0.002000
      3 C17        -13.8510    73.8480    20.7380 ca         1 QAI      -0.095000
      4 C20        -11.6990    74.1970    19.0260 ca         1 QAI      -0.116000
      5 C21        -12.9030    73.7130    18.5370 ca         1 QAI      -0.095000
      6 C22        -16.0500    72.1340    19.6330 ca         1 QAI      -0.124000
      7 C26        -20.0540    75.5650    18.0030 c          1 QAI       0.741600
      8 C02        -22.2250    71.9480    24.8760 ca         1 QAI       0.101000
      9 C03        -21.5320    71.0790    24.0470 ca         1 QAI      -0.104000
     10 C04        -21.1660    71.4990    22.7800 ca         1 QAI      -0.105500
     11 C05        -21.4910    72.7770    22.3200 ca         1 QAI       0.038000
     12 C06        -21.0990    73.1950    20.9770 cc         1 QAI      -0.243000
     13 C07        -20.9140    72.3940    19.8830 cd         1 QAI      -0.107000
     14 C08        -20.5210    73.1330    18.7370 cd         1 QAI       0.185000
     15 C12        -17.6710    71.9960    17.8810 ca         1 QAI      -0.287500
     16 C14        -15.7340    73.3690    17.5990 ca         1 QAI      -0.124000
     17 C16        -13.9960    73.5310    19.3870 cp         1 QAI      -0.028000
     18 C18        -12.6480    74.3340    21.2260 ca         1 QAI      -0.116000
     19 C19        -11.5670    74.5100    20.3720 ca         1 QAI      -0.115000
     20 C23        -17.2450    71.6280    19.1480 ca         1 QAI      -0.003500
     21 C25        -20.4230    74.4810    18.9690 cc         1 QAI      -0.259600
     22 C30        -22.1940    73.6280    23.1750 ca         1 QAI      -0.105500
     23 C31        -22.5580    73.2230    24.4490 ca         1 QAI      -0.104000
     24 N09        -20.3020    72.6130    17.4510 nu         1 QAI      -0.827100
     25 O11        -19.0860    71.2050    15.8170 o          1 QAI      -0.562500
     26 O24        -19.6240    70.2720    18.0890 o          1 QAI      -0.562500
     27 O27        -20.0010    76.7150    18.4560 o          1 QAI      -0.698000
     28 O28        -19.8380    75.1890    16.8230 o          1 QAI      -0.698000
     29 S10        -19.2080    71.3840    17.2520 sy         1 QAI       1.130600
     30 S29        -20.8090    74.8520    20.5970 ss         1 QAI       0.275000
     31 H1         -17.2570    73.1650    16.1160 ha         1 QAI       0.138000
     32 H2         -14.6900    73.7360    21.4130 ha         1 QAI       0.118000
     33 H3         -10.8610    74.3240    18.3530 ha         1 QAI       0.107000
     34 H4         -12.9840    73.4540    17.4890 ha         1 QAI       0.118000
     35 H5         -15.7100    71.8210    20.6110 ha         1 QAI       0.111000
     36 H6         -21.2680    70.0860    24.3860 ha         1 QAI       0.119500
     37 H7         -20.6010    70.8230    22.1510 ha         1 QAI       0.125500
     38 H8         -21.0840    71.3290    19.8910 ha         1 QAI       0.147000
     39 H9         -15.1640    74.0620    16.9940 ha         1 QAI       0.111000
     40 H10        -12.5570    74.5820    22.2760 ha         1 QAI       0.107000
     41 H11        -10.6270    74.8890    20.7530 ha         1 QAI       0.104000
     42 H12        -17.8220    70.9420    19.7530 ha         1 QAI       0.138000
     43 H13        -22.4810    74.6190    22.8470 ha         1 QAI       0.125500
     44 H14        -23.1040    73.8960    25.0960 ha         1 QAI       0.119500
     45 H15        -20.1070    73.4160    16.8220 hn         1 QAI       0.556000
     46 CL01       -22.6770    71.4360    26.4670 cl         1 QAI      -0.232000
@<TRIPOS>BOND
     1     1    15 ar  
     2     1    16 ar  
     3     1    31 1   
     4     2     6 ar  
     5     2    16 ar  
     6     2    17 1   
     7     3    17 ar  
     8     3    18 ar  
     9     3    32 1   
    10     4     5 ar  
    11     4    19 ar  
    12     4    33 1   
    13     5    17 ar  
    14     5    34 1   
    15     6    20 ar  
    16     6    35 1   
    17     7    21 1   
    18     7    27 1   
    19     7    28 1   
    20     8     9 ar  
    21     8    23 ar  
    22     8    46 1   
    23     9    10 ar  
    24     9    36 1   
    25    10    11 ar  
    26    10    37 1   
    27    11    12 1   
    28    11    22 ar  
    29    12    13 2   
    30    12    30 1   
    31    13    14 1   
    32    13    38 1   
    33    14    21 2   
    34    14    24 1   
    35    15    20 ar  
    36    15    29 1   
    37    16    39 1   
    38    18    19 ar  
    39    18    40 1   
    40    19    41 1   
    41    20    42 1   
    42    21    30 1   
    43    22    23 ar  
    44    22    43 1   
    45    23    44 1   
    46    24    29 1   
    47    24    45 1   
    48    25    29 2   
    49    26    29 2   
@<TRIPOS>SUBSTRUCTURE
     1 QAI         1 TEMP              0 ****  ****    0 ROOT
