@<TRIPOS>MOLECULE
QAI
   46    49     1     0     0
SMALL
No Charge or Current Charge


@<TRIPOS>ATOM
      1 C13        -17.5470    73.1120    17.4820 ca         1 QAI      -0.003500
      2 C15        -16.0380    72.6290    19.3630 cp         1 QAI       0.002000
      3 C17        -14.9910    72.6350    21.6750 ca         1 QAI      -0.095000
      4 C20        -12.9290    74.3360    20.8190 ca         1 QAI      -0.116000
      5 C21        -13.9240    73.9250    19.9140 ca         1 QAI      -0.095000
      6 C22        -16.6010    71.3310    19.4340 ca         1 QAI      -0.124000
      7 C26        -21.4250    75.1900    16.8540 c          1 QAI       0.741600
      8 C02        -19.3490    72.9940    24.4440 ca         1 QAI       0.101000
      9 C03        -18.7780    72.2030    23.4360 ca         1 QAI      -0.104000
     10 C04        -19.1500    72.3990    22.0940 ca         1 QAI      -0.105500
     11 C05        -20.0980    73.3870    21.7490 ca         1 QAI       0.038000
     12 C06        -20.4760    73.6160    20.3540 cc         1 QAI      -0.243000
     13 C07        -20.4750    72.6080    19.4200 cd         1 QAI      -0.107000
     14 C08        -20.7920    73.0750    18.1140 cd         1 QAI       0.185000
     15 C12        -18.1070    71.8240    17.5850 ca         1 QAI      -0.287500
     16 C14        -16.5260    73.5070    18.3620 ca         1 QAI      -0.124000
     17 C16        -14.9750    73.0640    20.3230 cp         1 QAI      -0.028000
     18 C18        -13.9980    73.0480    22.5800 ca         1 QAI      -0.116000
     19 C19        -12.9660    73.8980    22.1520 ca         1 QAI      -0.115000
     20 C23        -17.6230    70.9290    18.5590 ca         1 QAI      -0.003500
     21 C25        -21.0770    74.4170    18.0610 cc         1 QAI      -0.259600
     22 C30        -20.6590    74.1800    22.7710 ca         1 QAI      -0.105500
     23 C31        -20.2890    73.9830    24.1140 ca         1 QAI      -0.104000
     24 N09        -20.8000    72.2560    17.0230 nu         1 QAI      -0.827100
     25 O11        -19.2650    71.8830    15.1720 o          1 QAI      -0.562500
     26 O24        -19.8740    69.9660    16.7630 o          1 QAI      -0.562500
     27 O27        -21.6470    76.3840    16.9730 o          1 QAI      -0.698000
     28 O28        -21.4740    74.6110    15.7770 o          1 QAI      -0.698000
     29 S10        -19.4800    71.3570    16.5200 sy         1 QAI       1.130600
     30 S29        -20.9530    75.1600    19.6510 ss         1 QAI       0.275000
     31 H1         -17.9190    73.8170    16.7390 ha         1 QAI       0.138000
     32 H2         -15.7890    71.9890    22.0290 ha         1 QAI       0.118000
     33 H3         -12.1290    74.9940    20.4850 ha         1 QAI       0.107000
     34 H4         -13.8720    74.2670    18.8840 ha         1 QAI       0.118000
     35 H5         -16.2420    70.6250    20.1780 ha         1 QAI       0.111000
     36 H6         -18.0460    71.4420    23.6920 ha         1 QAI       0.119500
     37 H7         -18.6870    71.7900    21.3240 ha         1 QAI       0.125500
     38 H8         -20.2390    71.5730    19.6370 ha         1 QAI       0.147000
     39 H9         -16.1290    74.5150    18.2840 ha         1 QAI       0.111000
     40 H10        -14.0310    72.7100    23.6130 ha         1 QAI       0.107000
     41 H11        -12.1970    74.2170    22.8520 ha         1 QAI       0.104000
     42 H12        -18.0440    69.9300    18.6540 ha         1 QAI       0.138000
     43 H13        -21.3900    74.9470    22.5290 ha         1 QAI       0.125500
     44 H14        -20.7290    74.5960    24.8960 ha         1 QAI       0.119500
     45 H15        -20.9900    72.8010    16.1820 hn         1 QAI       0.556000
     46 Cl01       -18.8820    72.7500    26.1220 cl         1 QAI      -0.232000
@<TRIPOS>BOND
     1     1    15 ar  
     2     1    16 ar  
     3     1    31 1   
     4     2     6 ar  
     5     2    16 ar  
     6     2    17 1   
     7     3    17 ar  
     8     3    18 ar  
     9     3    32 1   
    10     4     5 ar  
    11     4    19 ar  
    12     4    33 1   
    13     5    17 ar  
    14     5    34 1   
    15     6    20 ar  
    16     6    35 1   
    17     7    21 1   
    18     7    27 1   
    19     7    28 1   
    20     8     9 ar  
    21     8    23 ar  
    22     8    46 1   
    23     9    10 ar  
    24     9    36 1   
    25    10    11 ar  
    26    10    37 1   
    27    11    12 1   
    28    11    22 ar  
    29    12    13 2   
    30    12    30 1   
    31    13    14 1   
    32    13    38 1   
    33    14    21 2   
    34    14    24 1   
    35    15    20 ar  
    36    15    29 1   
    37    16    39 1   
    38    18    19 ar  
    39    18    40 1   
    40    19    41 1   
    41    20    42 1   
    42    21    30 1   
    43    22    23 ar  
    44    22    43 1   
    45    23    44 1   
    46    24    29 1   
    47    24    45 1   
    48    25    29 2   
    49    26    29 2   
@<TRIPOS>SUBSTRUCTURE
     1 QAI         1 TEMP              0 ****  ****    0 ROOT
