@<TRIPOS>MOLECULE
QAJ
   61    65     1     0     0
SMALL
abcg2


@<TRIPOS>ATOM
      1 N1          19.0190    22.9730    -2.6860 nh         1 QAJ      -0.733300
      2 N3          23.5400    24.7550    -0.0580 nc         1 QAJ      -0.403000
      3 C4          21.3620    23.1680    -3.3920 c6         1 QAJ      -0.128900
      4 C5          21.7010    23.8540    -2.0710 c6         1 QAJ       0.229500
      5 C6          23.5670    25.2170    -1.2700 cd         1 QAJ       0.639300
      6 C7          25.1670    26.2340     0.1470 cd         1 QAJ       0.502300
      7 C8          26.9270    27.8900     0.1800 c          1 QAJ       0.602100
      8 C10         28.5670    29.7420     0.4880 ca         1 QAJ      -0.133300
      9 C13         29.6860    31.9450    -0.6600 ca         1 QAJ       0.344900
     10 C15         18.2120    23.6150    -3.5650 cc         1 QAJ       0.625300
     11 C17         14.8990    26.6020    -4.4130 c          1 QAJ       0.604100
     12 C20         12.6120    28.7070    -3.3850 ca         1 QAJ      -0.045000
     13 C21         12.3530    29.9270    -2.7820 ca         1 QAJ      -0.162000
     14 C22         12.9800    31.0590    -3.2810 ca         1 QAJ       0.343900
     15 C1          20.4710    24.5400    -1.4720 c6         1 QAJ      -0.128900
     16 C11         27.9690    30.9820     0.6810 ca         1 QAJ      -0.057000
     17 C12         28.5370    32.1040     0.1000 ca         1 QAJ      -0.162000
     18 C14         29.7170    29.7020    -0.2910 ca         1 QAJ       0.358900
     19 C16         16.5840    24.8950    -4.7170 cc         1 QAJ       0.497300
     20 C18         13.8240    27.3700    -5.1490 c3         1 QAJ      -0.097100
     21 C19         13.4850    28.6580    -4.4650 ca         1 QAJ      -0.135300
     22 C2          19.3020    23.5640    -1.3880 c6         1 QAJ       0.202800
     23 C23         14.0550    29.8550    -4.8820 ca         1 QAJ       0.348900
     24 C3          20.1600    22.2450    -3.2240 c6         1 QAJ       0.202800
     25 C9          27.9880    28.4930     1.0720 c3         1 QAJ      -0.098100
     26 N10         13.8150    31.0290    -4.3130 nb         1 QAJ      -0.663000
     27 N2          22.8020    24.7740    -2.2870 nu         1 QAJ      -0.905100
     28 N4          24.4680    25.3400     0.7460 nc         1 QAJ      -0.360000
     29 N5          26.1510    26.9510     0.7850 ns         1 QAJ      -0.474400
     30 N6          30.2700    30.7680    -0.8540 nb         1 QAJ      -0.662000
     31 N7          18.1720    23.3700    -4.8390 nd         1 QAJ      -0.393000
     32 N8          17.2310    24.0990    -5.4890 nd         1 QAJ      -0.362000
     33 N9          15.5940    25.7260    -5.1850 ns         1 QAJ      -0.472400
     34 O1          26.7740    28.1870    -0.9880 o          1 QAJ      -0.555100
     35 O2          15.1240    26.7220    -3.2250 o          1 QAJ      -0.560100
     36 S1          24.7670    26.4660    -1.5280 ss         1 QAJ      -0.236800
     37 S2          17.0660    24.8380    -3.0500 ss         1 QAJ      -0.228800
     38 H1          22.2200    22.5920    -3.7430 hc         1 QAJ       0.062200
     39 H2          21.1410    23.9190    -4.1580 hc         1 QAJ       0.062200
     40 H3          22.0490    23.0900    -1.3690 h1         1 QAJ       0.084700
     41 H4          30.1560    32.8030    -1.1280 h4         1 QAJ       0.021100
     42 H5          12.1300    27.8060    -3.0260 ha         1 QAJ       0.123000
     43 H6          11.6770    30.0040    -1.9420 ha         1 QAJ       0.127000
     44 H7          12.7980    32.0290    -2.8320 h4         1 QAJ       0.021100
     45 H8          20.7020    24.9200    -0.4750 hc         1 QAJ       0.062200
     46 H9          20.1900    25.3990    -2.0910 hc         1 QAJ       0.062200
     47 H10         27.0720    31.0700     1.2820 ha         1 QAJ       0.118000
     48 H11         28.1010    33.0840     0.2310 ha         1 QAJ       0.126000
     49 H12         30.2170    28.7520    -0.4600 h4         1 QAJ       0.019100
     50 H13         12.9440    26.7200    -5.1980 hc         1 QAJ       0.073700
     51 H14         14.1300    27.5470    -6.1820 hc         1 QAJ       0.073700
     52 H15         19.5380    22.7480    -0.7010 h1         1 QAJ       0.070700
     53 H16         18.4120    24.0470    -0.9840 h1         1 QAJ       0.070700
     54 H17         14.7390    29.8580    -5.7260 h4         1 QAJ       0.016100
     55 H18         19.8870    21.7820    -4.1690 h1         1 QAJ       0.070700
     56 H19         20.3970    21.4410    -2.5230 h1         1 QAJ       0.070700
     57 H20         27.5710    28.6820     2.0640 hc         1 QAJ       0.074200
     58 H21         28.7660    27.7350     1.2100 hc         1 QAJ       0.074200
     59 H22         22.7360    25.3630    -3.1030 hn         1 QAJ       0.490000
     60 H23         26.2980    26.7280     1.7600 hn         1 QAJ       0.343500
     61 H24         15.3940    25.6560    -6.1730 hn         1 QAJ       0.343500
@<TRIPOS>BOND
     1     1    10 1   
     2     1    22 1   
     3     1    24 1   
     4     2     5 2   
     5     2    28 1   
     6     3     4 1   
     7     3    24 1   
     8     3    38 1   
     9     3    39 1   
    10     4    15 1   
    11     4    27 1   
    12     4    40 1   
    13     5    27 1   
    14     5    36 1   
    15     6    28 2   
    16     6    29 1   
    17     6    36 1   
    18     7    25 1   
    19     7    29 1   
    20     7    34 2   
    21     8    16 ar  
    22     8    18 ar  
    23     8    25 1   
    24     9    17 ar  
    25     9    30 ar  
    26     9    41 1   
    27    10    31 2   
    28    10    37 1   
    29    11    20 1   
    30    11    33 1   
    31    11    35 2   
    32    12    13 ar  
    33    12    21 ar  
    34    12    42 1   
    35    13    14 ar  
    36    13    43 1   
    37    14    26 ar  
    38    14    44 1   
    39    15    22 1   
    40    15    45 1   
    41    15    46 1   
    42    16    17 ar  
    43    16    47 1   
    44    17    48 1   
    45    18    30 ar  
    46    18    49 1   
    47    19    32 2   
    48    19    33 1   
    49    19    37 1   
    50    20    21 1   
    51    20    50 1   
    52    20    51 1   
    53    21    23 ar  
    54    22    52 1   
    55    22    53 1   
    56    23    26 ar  
    57    23    54 1   
    58    24    55 1   
    59    24    56 1   
    60    25    57 1   
    61    25    58 1   
    62    27    59 1   
    63    29    60 1   
    64    31    32 1   
    65    33    61 1   
@<TRIPOS>SUBSTRUCTURE
     1 QAJ         1 TEMP              0 ****  ****    0 ROOT
