@<TRIPOS>MOLECULE
QAJ
   61    65     1     0     0
SMALL
No Charge or Current Charge


@<TRIPOS>ATOM
      1 N1          19.0660    23.4950    -2.4010 nh         1 QAJ      -0.733300
      2 N3          24.1880    24.8630    -0.5390 nc         1 QAJ      -0.403000
      3 C4          21.3280    23.4760    -3.4170 c6         1 QAJ      -0.128900
      4 C5          21.8910    24.1790    -2.1620 c6         1 QAJ       0.229500
      5 C6          24.0540    25.3860    -1.7460 cd         1 QAJ       0.639300
      6 C7          25.9780    26.2120    -0.6820 cd         1 QAJ       0.502300
      7 C8          27.9570    27.7090    -0.8390 c          1 QAJ       0.602100
      8 C10         28.9180    29.5370     0.6080 ca         1 QAJ      -0.133300
      9 C13         28.4920    32.0780     1.5940 ca         1 QAJ       0.344900
     10 C15         17.9000    23.8850    -3.0470 cc         1 QAJ       0.625300
     11 C17         13.9930    26.4250    -3.3990 c          1 QAJ       0.604100
     12 C20         12.5860    29.4860    -4.0120 ca         1 QAJ      -0.045000
     13 C21         12.8200    30.7200    -4.6390 ca         1 QAJ      -0.162000
     14 C22         13.3910    30.7420    -5.9220 ca         1 QAJ       0.343900
     15 C1          20.7890    25.0190    -1.4780 c6         1 QAJ      -0.128900
     16 C11         28.5460    29.6820     1.9570 ca         1 QAJ      -0.057000
     17 C12         28.3310    30.9780     2.4530 ca         1 QAJ      -0.162000
     18 C14         29.0540    30.7000    -0.1820 ca         1 QAJ       0.358900
     19 C16         15.8500    24.8260    -3.8030 cc         1 QAJ       0.497300
     20 C18         12.7100    26.9360    -4.0690 c3         1 QAJ      -0.097100
     21 C19         12.9340    28.3100    -4.7020 ca         1 QAJ      -0.135300
     22 C2          19.5590    24.1430    -1.1540 c6         1 QAJ       0.202800
     23 C23         13.5050    28.4290    -5.9880 ca         1 QAJ       0.348900
     24 C3          20.0860    22.6300    -3.0590 c6         1 QAJ       0.202800
     25 C9          29.1600    28.1530     0.0040 c3         1 QAJ      -0.098100
     26 N10         13.7320    29.6180    -6.5930 nb         1 QAJ      -0.663000
     27 N2          23.0060    25.0520    -2.5560 nu         1 QAJ      -0.905100
     28 N4          25.3240    25.3530     0.0880 nc         1 QAJ      -0.360000
     29 N5          27.1300    26.7990    -0.2230 ns         1 QAJ      -0.474400
     30 N6          28.8480    31.9500     0.2950 nb         1 QAJ      -0.662000
     31 N7          17.5100    23.3730    -4.2060 nd         1 QAJ      -0.393000
     32 N8          16.3190    23.9220    -4.6450 nd         1 QAJ      -0.362000
     33 N9          14.6690    25.4620    -4.1080 ns         1 QAJ      -0.472400
     34 O1          27.7630    28.1580    -1.9570 o          1 QAJ      -0.555100
     35 O2          14.3740    26.8650    -2.3250 o          1 QAJ      -0.560100
     36 S1          25.2690    26.5090    -2.2550 ss         1 QAJ      -0.236800
     37 S2          16.8310    25.0870    -2.3910 ss         1 QAJ      -0.228800
     38 H1          22.0960    22.8320    -3.8650 hc         1 QAJ       0.062200
     39 H2          21.0510    24.2190    -4.1780 hc         1 QAJ       0.062200
     40 H3          22.2290    23.4000    -1.4600 h1         1 QAJ       0.084700
     41 H4          28.3310    33.0930     1.9560 h4         1 QAJ       0.021100
     42 H5          12.1480    29.4460    -3.0170 ha         1 QAJ       0.123000
     43 H6          12.5660    31.6520    -4.1420 ha         1 QAJ       0.127000
     44 H7          13.5830    31.6880    -6.4280 h4         1 QAJ       0.021100
     45 H8          21.1750    25.4670    -0.5530 hc         1 QAJ       0.062200
     46 H9          20.4840    25.8490    -2.1290 hc         1 QAJ       0.062200
     47 H10         28.4260    28.8170     2.6060 ha         1 QAJ       0.118000
     48 H11         28.0430    31.1360     3.4880 ha         1 QAJ       0.126000
     49 H12         29.3390    30.6280    -1.2310 h4         1 QAJ       0.019100
     50 H13         11.9270    27.0070    -3.3040 hc         1 QAJ       0.073700
     51 H14         12.3860    26.2320    -4.8450 hc         1 QAJ       0.073700
     52 H15         19.8500    23.3710    -0.4240 h1         1 QAJ       0.070700
     53 H16         18.7920    24.7570    -0.6620 h1         1 QAJ       0.070700
     54 H17         13.7910    27.5420    -6.5520 h4         1 QAJ       0.016100
     55 H18         19.7000    22.1480    -3.9690 h1         1 QAJ       0.070700
     56 H19         20.3840    21.8180    -2.3780 h1         1 QAJ       0.070700
     57 H20         29.3410    27.4310     0.8080 hc         1 QAJ       0.074200
     58 H21         30.0420    28.1930    -0.6460 hc         1 QAJ       0.074200
     59 H22         22.9780    25.5430    -3.4460 hn         1 QAJ       0.490000
     60 H23         27.4230    26.5350     0.7060 hn         1 QAJ       0.343500
     61 H24         14.2360    25.1870    -4.9780 hn         1 QAJ       0.343500
@<TRIPOS>BOND
     1     1    10 1   
     2     1    22 1   
     3     1    24 1   
     4     2     5 2   
     5     2    28 1   
     6     3     4 1   
     7     3    24 1   
     8     3    38 1   
     9     3    39 1   
    10     4    15 1   
    11     4    27 1   
    12     4    40 1   
    13     5    27 1   
    14     5    36 1   
    15     6    28 2   
    16     6    29 1   
    17     6    36 1   
    18     7    25 1   
    19     7    29 1   
    20     7    34 2   
    21     8    16 ar  
    22     8    18 ar  
    23     8    25 1   
    24     9    17 ar  
    25     9    30 ar  
    26     9    41 1   
    27    10    31 2   
    28    10    37 1   
    29    11    20 1   
    30    11    33 1   
    31    11    35 2   
    32    12    13 ar  
    33    12    21 ar  
    34    12    42 1   
    35    13    14 ar  
    36    13    43 1   
    37    14    26 ar  
    38    14    44 1   
    39    15    22 1   
    40    15    45 1   
    41    15    46 1   
    42    16    17 ar  
    43    16    47 1   
    44    17    48 1   
    45    18    30 ar  
    46    18    49 1   
    47    19    32 2   
    48    19    33 1   
    49    19    37 1   
    50    20    21 1   
    51    20    50 1   
    52    20    51 1   
    53    21    23 ar  
    54    22    52 1   
    55    22    53 1   
    56    23    26 ar  
    57    23    54 1   
    58    24    55 1   
    59    24    56 1   
    60    25    57 1   
    61    25    58 1   
    62    27    59 1   
    63    29    60 1   
    64    31    32 1   
    65    33    61 1   
@<TRIPOS>SUBSTRUCTURE
     1 QAJ         1 TEMP              0 ****  ****    0 ROOT
