@<TRIPOS>MOLECULE
QAK
  119   118     1     0     0
SMALL
No Charge or Current Charge


@<TRIPOS>ATOM
      1 C2         234.7120   199.0650   203.0090 c3         1 QAK      -0.060700
      2 C3         234.7610   200.6150   202.9990 c3         1 QAK      -0.040200
      3 C4         233.7860   201.2430   203.9750 c2         1 QAK      -0.219200
      4 CA         233.8170   220.8810   218.0170 c3         1 QAK      -0.096400
      5 C          234.3830   222.2660   218.4700 c3         1 QAK       0.177000
      6 O          234.1870   223.2260   217.4320 oh         1 QAK      -0.667000
      7 CB         234.5820   220.0850   216.9180 c3         1 QAK      -0.066400
      8 CD1        235.6040   198.4680   201.8970 c3         1 QAK      -0.087100
      9 CD2        232.4090   201.5040   206.8340 c3         1 QAK      -0.039200
     10 CE2        233.1620   202.6010   206.0390 c3         1 QAK      -0.022500
     11 CE3        231.5580   202.0640   207.9560 c2         1 QAK      -0.218200
     12 CZ2        234.1270   201.9870   205.0400 c2         1 QAK      -0.216200
     13 CZ3        230.2180   201.9870   208.0240 c2         1 QAK      -0.216200
     14 C10        229.3540   202.5690   209.1280 c3         1 QAK      -0.023500
     15 C11        229.4510   204.1180   209.1410 c3         1 QAK      -0.071400
     16 C12        228.4430   204.8230   210.0800 c3         1 QAK      -0.073400
     17 C13        228.5140   206.3670   209.9830 c3         1 QAK      -0.073400
     18 C14        227.6230   207.1360   211.0010 c3         1 QAK      -0.058700
     19 C15        227.9360   208.6590   210.9440 c3         1 QAK      -0.072400
     20 C16        227.2630   209.5120   212.0480 c3         1 QAK      -0.074400
     21 C17        227.7150   210.9890   212.0260 c3         1 QAK      -0.076400
     22 C18        227.0430   211.8410   213.1300 c3         1 QAK      -0.072400
     23 C19        227.3470   213.3660   213.0700 c3         1 QAK      -0.057700
     24 C20        226.4490   214.1240   214.0800 c3         1 QAK      -0.087100
     25 C21        228.8590   213.6830   213.2720 c3         1 QAK      -0.074400
     26 C22        229.2370   215.1800   213.1480 c3         1 QAK      -0.073400
     27 C23        230.7660   215.4190   213.2180 c3         1 QAK      -0.073400
     28 C24        231.2020   216.9120   213.2400 c3         1 QAK      -0.058700
     29 C25        230.7860   217.6650   211.9480 c3         1 QAK      -0.086100
     30 C26        232.7280   217.0220   213.5210 c3         1 QAK      -0.074400
     31 C27        233.2510   218.4580   213.7660 c3         1 QAK      -0.074400
     32 C28        234.7440   218.4870   214.1800 c3         1 QAK      -0.070400
     33 C29        235.3510   219.9020   214.4200 c3         1 QAK      -0.056700
     34 C30        235.4720   220.7070   213.1020 c3         1 QAK      -0.087100
     35 C31        234.6320   220.7420   215.5150 c3         1 QAK      -0.075400
     36 C35        233.5930   222.7740   219.7000 c3         1 QAK      -0.098100
     37 C36        235.8940   222.2120   218.7990 c3         1 QAK      -0.098100
     38 C37        226.1130   206.8390   210.8010 c3         1 QAK      -0.086100
     39 C38        229.6920   201.9230   210.4920 c3         1 QAK      -0.086100
     40 C39        232.2020   203.5980   205.3490 c3         1 QAK      -0.084100
     41 C40        235.0790   198.4760   204.3920 c3         1 QAK      -0.087100
     42 H1         233.6790   198.7660   202.7890 hc         1 QAK       0.044700
     43 H2         235.7850   200.9410   203.2180 hc         1 QAK       0.043200
     44 H3         234.5360   200.9740   201.9870 hc         1 QAK       0.043200
     45 H4         232.7370   201.0390   203.7550 ha         1 QAK       0.166000
     46 H5         232.7770   221.0060   217.6920 hc         1 QAK       0.039200
     47 H6         233.7710   220.2330   218.9010 hc         1 QAK       0.039200
     48 H7         233.2400   223.1840   217.1820 ho         1 QAK       0.436000
     49 H8         234.0840   219.1120   216.8320 hc         1 QAK       0.038200
     50 H9         235.6020   219.8700   217.2570 hc         1 QAK       0.038200
     51 H10        235.3010   198.8450   200.9120 hc         1 QAK       0.032700
     52 H11        236.6570   198.7310   202.0570 hc         1 QAK       0.032700
     53 H12        235.5220   197.3750   201.8790 hc         1 QAK       0.032700
     54 H13        231.7910   200.9190   206.1420 hc         1 QAK       0.046200
     55 H14        233.1430   200.8040   207.2530 hc         1 QAK       0.046200
     56 H15        233.7510   203.1770   206.7630 hc         1 QAK       0.050700
     57 H16        232.1240   202.5700   208.7400 ha         1 QAK       0.167000
     58 H17        235.1790   202.1830   205.2580 ha         1 QAK       0.165000
     59 H18        229.6570   201.4850   207.2340 ha         1 QAK       0.163000
     60 H19        228.3100   202.3110   208.9040 hc         1 QAK       0.049700
     61 H20        230.4700   204.4160   209.4180 hc         1 QAK       0.039200
     62 H21        229.2860   204.4830   208.1200 hc         1 QAK       0.039200
     63 H22        227.4330   204.4810   209.8260 hc         1 QAK       0.038700
     64 H23        228.6370   204.5260   211.1180 hc         1 QAK       0.038700
     65 H24        229.5580   206.6670   210.1350 hc         1 QAK       0.037200
     66 H25        228.2470   206.6750   208.9640 hc         1 QAK       0.037200
     67 H26        227.8970   206.7850   212.0040 hc         1 QAK       0.042700
     68 H27        229.0220   208.7960   211.0260 hc         1 QAK       0.037200
     69 H28        227.6480   209.0520   209.9610 hc         1 QAK       0.037200
     70 H29        226.1740   209.4800   211.9290 hc         1 QAK       0.037700
     71 H30        227.4950   209.0800   213.0300 hc         1 QAK       0.037700
     72 H31        228.8050   211.0190   212.1440 hc         1 QAK       0.037700
     73 H32        227.4840   211.4210   211.0440 hc         1 QAK       0.037700
     74 H33        225.9580   211.6990   213.0530 hc         1 QAK       0.037200
     75 H34        227.3380   211.4520   214.1130 hc         1 QAK       0.037200
     76 H35        227.0670   213.7140   212.0670 hc         1 QAK       0.043700
     77 H36        226.5190   215.2090   213.9400 hc         1 QAK       0.032033
     78 H37        225.3960   213.8490   213.9470 hc         1 QAK       0.032033
     79 H38        226.7360   213.8880   215.1120 hc         1 QAK       0.032033
     80 H39        229.1780   213.3130   214.2540 hc         1 QAK       0.037700
     81 H40        229.4450   213.1360   212.5260 hc         1 QAK       0.037700
     82 H41        228.8450   215.5600   212.1980 hc         1 QAK       0.038200
     83 H42        228.7580   215.7500   213.9520 hc         1 QAK       0.038200
     84 H43        231.1430   214.9310   214.1260 hc         1 QAK       0.036200
     85 H44        231.2470   214.9140   212.3710 hc         1 QAK       0.036200
     86 H45        230.6820   217.3910   214.0800 hc         1 QAK       0.042700
     87 H46        231.0510   218.7260   212.0020 hc         1 QAK       0.032033
     88 H47        231.2780   217.2310   211.0690 hc         1 QAK       0.032033
     89 H48        229.7030   217.6210   211.7920 hc         1 QAK       0.032033
     90 H49        232.9650   216.4190   214.4070 hc         1 QAK       0.036200
     91 H50        233.2830   216.5760   212.6850 hc         1 QAK       0.036200
     92 H51        233.1230   219.0540   212.8560 hc         1 QAK       0.039200
     93 H52        232.6430   218.9240   214.5500 hc         1 QAK       0.039200
     94 H53        234.8770   217.8800   215.0830 hc         1 QAK       0.035700
     95 H54        235.3320   217.9850   213.4020 hc         1 QAK       0.035700
     96 H55        236.3780   219.7390   214.7720 hc         1 QAK       0.041700
     97 H56        236.0370   221.6320   213.2660 hc         1 QAK       0.032367
     98 H57        235.9970   220.1240   212.3360 hc         1 QAK       0.032367
     99 H58        234.4850   220.9800   212.7110 hc         1 QAK       0.032367
    100 H59        235.1640   221.6970   215.5970 hc         1 QAK       0.045200
    101 H60        233.6130   220.9830   215.1890 hc         1 QAK       0.045200
    102 H61        232.5200   222.8350   219.4830 hc         1 QAK       0.041867
    103 H62        233.7270   222.0990   220.5540 hc         1 QAK       0.041867
    104 H63        233.9360   223.7710   220.0030 hc         1 QAK       0.041867
    105 H64        236.0990   221.4470   219.5570 hc         1 QAK       0.041867
    106 H65        236.4880   221.9790   217.9070 hc         1 QAK       0.041867
    107 H66        236.2430   223.1760   219.1870 hc         1 QAK       0.041867
    108 H67        225.5030   207.3460   211.5570 hc         1 QAK       0.032033
    109 H68        225.7780   207.1710   209.8100 hc         1 QAK       0.032033
    110 H69        225.9010   205.7690   210.8950 hc         1 QAK       0.032033
    111 H70        228.9680   202.2180   211.2600 hc         1 QAK       0.034367
    112 H71        229.6650   200.8290   210.4140 hc         1 QAK       0.034367
    113 H72        230.6930   202.2170   210.8290 hc         1 QAK       0.034367
    114 H73        231.5840   204.1230   206.0880 hc         1 QAK       0.035033
    115 H74        232.7690   204.3520   204.7900 hc         1 QAK       0.035033
    116 H75        231.5340   203.0820   204.6500 hc         1 QAK       0.035033
    117 H76        234.3880   198.8300   205.1670 hc         1 QAK       0.032700
    118 H77        235.0260   197.3810   204.3730 hc         1 QAK       0.032700
    119 H78        236.0960   198.7660   204.6820 hc         1 QAK       0.032700
@<TRIPOS>BOND
     1     1     2 1   
     2     1     8 1   
     3     1    41 1   
     4     1    42 1   
     5     2     3 1   
     6     2    43 1   
     7     2    44 1   
     8     3    12 2   
     9     3    45 1   
    10     4     5 1   
    11     4     7 1   
    12     4    46 1   
    13     4    47 1   
    14     5     6 1   
    15     5    36 1   
    16     5    37 1   
    17     6    48 1   
    18     7    35 1   
    19     7    49 1   
    20     7    50 1   
    21     8    51 1   
    22     8    52 1   
    23     8    53 1   
    24     9    10 1   
    25     9    11 1   
    26     9    54 1   
    27     9    55 1   
    28    10    12 1   
    29    10    40 1   
    30    10    56 1   
    31    11    13 2   
    32    11    57 1   
    33    12    58 1   
    34    13    14 1   
    35    13    59 1   
    36    14    15 1   
    37    14    39 1   
    38    14    60 1   
    39    15    16 1   
    40    15    61 1   
    41    15    62 1   
    42    16    17 1   
    43    16    63 1   
    44    16    64 1   
    45    17    18 1   
    46    17    65 1   
    47    17    66 1   
    48    18    19 1   
    49    18    38 1   
    50    18    67 1   
    51    19    20 1   
    52    19    68 1   
    53    19    69 1   
    54    20    21 1   
    55    20    70 1   
    56    20    71 1   
    57    21    22 1   
    58    21    72 1   
    59    21    73 1   
    60    22    23 1   
    61    22    74 1   
    62    22    75 1   
    63    23    24 1   
    64    23    25 1   
    65    23    76 1   
    66    24    77 1   
    67    24    78 1   
    68    24    79 1   
    69    25    26 1   
    70    25    80 1   
    71    25    81 1   
    72    26    27 1   
    73    26    82 1   
    74    26    83 1   
    75    27    28 1   
    76    27    84 1   
    77    27    85 1   
    78    28    29 1   
    79    28    30 1   
    80    28    86 1   
    81    29    87 1   
    82    29    88 1   
    83    29    89 1   
    84    30    31 1   
    85    30    90 1   
    86    30    91 1   
    87    31    32 1   
    88    31    92 1   
    89    31    93 1   
    90    32    33 1   
    91    32    94 1   
    92    32    95 1   
    93    33    34 1   
    94    33    35 1   
    95    33    96 1   
    96    34    97 1   
    97    34    98 1   
    98    34    99 1   
    99    35   100 1   
   100    35   101 1   
   101    36   102 1   
   102    36   103 1   
   103    36   104 1   
   104    37   105 1   
   105    37   106 1   
   106    37   107 1   
   107    38   108 1   
   108    38   109 1   
   109    38   110 1   
   110    39   111 1   
   111    39   112 1   
   112    39   113 1   
   113    40   114 1   
   114    40   115 1   
   115    40   116 1   
   116    41   117 1   
   117    41   118 1   
   118    41   119 1   
@<TRIPOS>SUBSTRUCTURE
     1 QAK         1 TEMP              0 ****  ****    0 ROOT
