@<TRIPOS>MOLECULE
QAK
  119   118     1     0     0
SMALL
abcg2


@<TRIPOS>ATOM
      1 C2         235.2710   199.0940   203.4250 c3         1 QAK      -0.060700
      2 C3         234.9990   200.6100   203.4060 c3         1 QAK      -0.040200
      3 C4         234.1100   201.0760   204.5190 c2         1 QAK      -0.219200
      4 CA         234.3430   219.7110   217.7080 c3         1 QAK      -0.096400
      5 C          235.0730   220.8790   218.3950 c3         1 QAK       0.177000
      6 O          234.8180   222.1280   217.7080 oh         1 QAK      -0.667000
      7 CB         234.8180   219.2620   216.3230 c3         1 QAK      -0.066400
      8 CD1        236.0020   198.6660   202.1530 c3         1 QAK      -0.087100
      9 CD2        232.2420   201.7750   206.7080 c3         1 QAK      -0.039200
     10 CE2        233.6060   202.4740   206.5860 c3         1 QAK      -0.022500
     11 CE3        231.5060   202.1480   207.9600 c2         1 QAK      -0.218200
     12 CZ2        234.4520   201.9630   205.4490 c2         1 QAK      -0.216200
     13 CZ3        230.3200   202.7490   207.9980 c2         1 QAK      -0.216200
     14 C10        229.5560   203.1910   209.2180 c3         1 QAK      -0.023500
     15 C11        229.3450   204.7170   209.1490 c3         1 QAK      -0.071400
     16 C12        228.3920   205.2890   210.1970 c3         1 QAK      -0.073400
     17 C13        228.1730   206.7900   210.0170 c3         1 QAK      -0.073400
     18 C14        227.3540   207.4690   211.1230 c3         1 QAK      -0.058700
     19 C15        227.4210   208.9930   210.9670 c3         1 QAK      -0.072400
     20 C16        226.8330   209.7950   212.1270 c3         1 QAK      -0.074400
     21 C17        227.1130   211.2920   212.0090 c3         1 QAK      -0.076400
     22 C18        226.5680   212.1030   213.1830 c3         1 QAK      -0.072400
     23 C19        226.8300   213.6140   213.1150 c3         1 QAK      -0.057700
     24 C20        226.0420   214.3330   214.2130 c3         1 QAK      -0.087100
     25 C21        228.3290   213.9310   213.1920 c3         1 QAK      -0.074400
     26 C22        228.6980   215.4050   213.0360 c3         1 QAK      -0.073400
     27 C23        230.2090   215.6070   212.9270 c3         1 QAK      -0.073400
     28 C24        230.6850   217.0640   212.9810 c3         1 QAK      -0.058700
     29 C25        230.0920   217.9000   211.8440 c3         1 QAK      -0.086100
     30 C26        232.2190   217.1190   212.9820 c3         1 QAK      -0.074400
     31 C27        232.8160   218.4720   213.3640 c3         1 QAK      -0.074400
     32 C28        234.3440   218.4490   213.3830 c3         1 QAK      -0.070400
     33 C29        235.0270   219.7620   213.8040 c3         1 QAK      -0.056700
     34 C30        234.8270   220.8640   212.7590 c3         1 QAK      -0.087100
     35 C31        234.6020   220.2650   215.1910 c3         1 QAK      -0.075400
     36 C35        234.5700   221.0060   219.8350 c3         1 QAK      -0.098100
     37 C36        236.5870   220.7100   218.3760 c3         1 QAK      -0.098100
     38 C37        225.9110   206.9620   211.1570 c3         1 QAK      -0.086100
     39 C38        230.1920   202.7550   210.5360 c3         1 QAK      -0.086100
     40 C39        233.4520   203.9980   206.4780 c3         1 QAK      -0.084100
     41 C40        236.0550   198.6810   204.6720 c3         1 QAK      -0.087100
     42 H1         234.3000   198.5850   203.4480 hc         1 QAK       0.044700
     43 H2         235.9530   201.1460   203.4400 hc         1 QAK       0.043200
     44 H3         234.5300   200.8560   202.4460 hc         1 QAK       0.043200
     45 H4         233.1220   200.6240   204.5460 ha         1 QAK       0.166000
     46 H5         233.2800   219.9740   217.6550 hc         1 QAK       0.039200
     47 H6         234.4090   218.8540   218.3840 hc         1 QAK       0.039200
     48 H7         233.8620   222.2320   217.6270 ho         1 QAK       0.436000
     49 H8         234.2800   218.3390   216.0900 hc         1 QAK       0.038200
     50 H9         235.8760   218.9840   216.3640 hc         1 QAK       0.038200
     51 H10        235.4270   198.9230   201.2610 hc         1 QAK       0.032700
     52 H11        236.9740   199.1650   202.0810 hc         1 QAK       0.032700
     53 H12        236.1800   197.5880   202.1440 hc         1 QAK       0.032700
     54 H13        231.6290   202.0110   205.8330 hc         1 QAK       0.046200
     55 H14        232.4090   200.6930   206.7000 hc         1 QAK       0.046200
     56 H15        234.1610   202.2730   207.5120 hc         1 QAK       0.050700
     57 H16        232.0170   201.9080   208.8890 ha         1 QAK       0.167000
     58 H17        235.4480   202.4010   205.3980 ha         1 QAK       0.165000
     59 H18        229.8380   202.9910   207.0510 ha         1 QAK       0.163000
     60 H19        228.5590   202.7320   209.1560 hc         1 QAK       0.049700
     61 H20        230.3220   205.2060   209.2370 hc         1 QAK       0.039200
     62 H21        228.9640   204.9690   208.1540 hc         1 QAK       0.039200
     63 H22        227.4380   204.7560   210.1390 hc         1 QAK       0.038700
     64 H23        228.7880   205.1090   211.2010 hc         1 QAK       0.038700
     65 H24        229.1540   207.2770   209.9690 hc         1 QAK       0.037200
     66 H25        227.6910   206.9760   209.0490 hc         1 QAK       0.037200
     67 H26        227.8250   207.2160   212.0830 hc         1 QAK       0.042700
     68 H27        228.4720   209.2800   210.8490 hc         1 QAK       0.037200
     69 H28        226.9190   209.2800   210.0340 hc         1 QAK       0.037200
     70 H29        225.7530   209.6340   212.1940 hc         1 QAK       0.037700
     71 H30        227.2590   209.4260   213.0680 hc         1 QAK       0.037700
     72 H31        228.1940   211.4360   211.9220 hc         1 QAK       0.037700
     73 H32        226.6780   211.6720   211.0770 hc         1 QAK       0.037700
     74 H33        225.4860   211.9400   213.2460 hc         1 QAK       0.037200
     75 H34        226.9890   211.7140   214.1190 hc         1 QAK       0.037200
     76 H35        226.4620   213.9720   212.1450 hc         1 QAK       0.043700
     77 H36        226.1350   215.4170   214.1400 hc         1 QAK       0.032033
     78 H37        224.9800   214.0830   214.1550 hc         1 QAK       0.032033
     79 H38        226.4040   214.0330   215.2020 hc         1 QAK       0.032033
     80 H39        228.7160   213.5620   214.1500 hc         1 QAK       0.037700
     81 H40        228.8530   213.3670   212.4150 hc         1 QAK       0.037700
     82 H41        228.2000   215.8060   212.1480 hc         1 QAK       0.038200
     83 H42        228.3230   215.9820   213.8870 hc         1 QAK       0.038200
     84 H43        230.6930   215.0590   213.7420 hc         1 QAK       0.036200
     85 H44        230.5680   215.1490   211.9960 hc         1 QAK       0.036200
     86 H45        230.3370   217.4880   213.9320 hc         1 QAK       0.042700
     87 H46        230.4450   218.9320   211.8790 hc         1 QAK       0.032033
     88 H47        230.3810   217.4800   210.8750 hc         1 QAK       0.032033
     89 H48        229.0030   217.9220   211.8870 hc         1 QAK       0.032033
     90 H49        232.5950   216.3670   213.6840 hc         1 QAK       0.036200
     91 H50        232.5850   216.8230   211.9910 hc         1 QAK       0.036200
     92 H51        232.4690   219.2440   212.6730 hc         1 QAK       0.039200
     93 H52        232.4380   218.7510   214.3520 hc         1 QAK       0.039200
     94 H53        234.6730   217.6440   214.0470 hc         1 QAK       0.035700
     95 H54        234.7070   218.1800   212.3840 hc         1 QAK       0.035700
     96 H55        236.1020   219.5500   213.8530 hc         1 QAK       0.041700
     97 H56        235.3980   221.7570   213.0230 hc         1 QAK       0.032367
     98 H57        235.1540   220.5340   211.7690 hc         1 QAK       0.032367
     99 H58        233.7770   221.1540   212.6850 hc         1 QAK       0.032367
    100 H59        235.1530   221.1810   215.4080 hc         1 QAK       0.045200
    101 H60        233.5450   220.5540   215.1660 hc         1 QAK       0.045200
    102 H61        233.4850   221.1420   219.8480 hc         1 QAK       0.041867
    103 H62        234.8070   220.1120   220.4150 hc         1 QAK       0.041867
    104 H63        235.0320   221.8670   220.3200 hc         1 QAK       0.041867
    105 H64        236.8700   219.7700   218.8520 hc         1 QAK       0.041867
    106 H65        236.9680   220.7080   217.3540 hc         1 QAK       0.041867
    107 H66        237.0620   221.5290   218.9180 hc         1 QAK       0.041867
    108 H67        225.3440   207.4210   211.9690 hc         1 QAK       0.032033
    109 H68        225.4020   207.2000   210.2170 hc         1 QAK       0.032033
    110 H69        225.8670   205.8810   211.2960 hc         1 QAK       0.032033
    111 H70        229.5580   203.0220   211.3810 hc         1 QAK       0.034367
    112 H71        230.3470   201.6740   210.5620 hc         1 QAK       0.034367
    113 H72        231.1630   203.2370   210.6810 hc         1 QAK       0.034367
    114 H73        232.9220   204.4000   207.3420 hc         1 QAK       0.035033
    115 H74        234.4280   204.4850   206.4170 hc         1 QAK       0.035033
    116 H75        232.8870   204.2600   205.5790 hc         1 QAK       0.035033
    117 H76        235.5280   198.9590   205.5860 hc         1 QAK       0.032700
    118 H77        236.2200   197.6010   204.6890 hc         1 QAK       0.032700
    119 H78        237.0330   199.1710   204.6870 hc         1 QAK       0.032700
@<TRIPOS>BOND
     1     1     2 1   
     2     1     8 1   
     3     1    41 1   
     4     1    42 1   
     5     2     3 1   
     6     2    43 1   
     7     2    44 1   
     8     3    12 2   
     9     3    45 1   
    10     4     5 1   
    11     4     7 1   
    12     4    46 1   
    13     4    47 1   
    14     5     6 1   
    15     5    36 1   
    16     5    37 1   
    17     6    48 1   
    18     7    35 1   
    19     7    49 1   
    20     7    50 1   
    21     8    51 1   
    22     8    52 1   
    23     8    53 1   
    24     9    10 1   
    25     9    11 1   
    26     9    54 1   
    27     9    55 1   
    28    10    12 1   
    29    10    40 1   
    30    10    56 1   
    31    11    13 2   
    32    11    57 1   
    33    12    58 1   
    34    13    14 1   
    35    13    59 1   
    36    14    15 1   
    37    14    39 1   
    38    14    60 1   
    39    15    16 1   
    40    15    61 1   
    41    15    62 1   
    42    16    17 1   
    43    16    63 1   
    44    16    64 1   
    45    17    18 1   
    46    17    65 1   
    47    17    66 1   
    48    18    19 1   
    49    18    38 1   
    50    18    67 1   
    51    19    20 1   
    52    19    68 1   
    53    19    69 1   
    54    20    21 1   
    55    20    70 1   
    56    20    71 1   
    57    21    22 1   
    58    21    72 1   
    59    21    73 1   
    60    22    23 1   
    61    22    74 1   
    62    22    75 1   
    63    23    24 1   
    64    23    25 1   
    65    23    76 1   
    66    24    77 1   
    67    24    78 1   
    68    24    79 1   
    69    25    26 1   
    70    25    80 1   
    71    25    81 1   
    72    26    27 1   
    73    26    82 1   
    74    26    83 1   
    75    27    28 1   
    76    27    84 1   
    77    27    85 1   
    78    28    29 1   
    79    28    30 1   
    80    28    86 1   
    81    29    87 1   
    82    29    88 1   
    83    29    89 1   
    84    30    31 1   
    85    30    90 1   
    86    30    91 1   
    87    31    32 1   
    88    31    92 1   
    89    31    93 1   
    90    32    33 1   
    91    32    94 1   
    92    32    95 1   
    93    33    34 1   
    94    33    35 1   
    95    33    96 1   
    96    34    97 1   
    97    34    98 1   
    98    34    99 1   
    99    35   100 1   
   100    35   101 1   
   101    36   102 1   
   102    36   103 1   
   103    36   104 1   
   104    37   105 1   
   105    37   106 1   
   106    37   107 1   
   107    38   108 1   
   108    38   109 1   
   109    38   110 1   
   110    39   111 1   
   111    39   112 1   
   112    39   113 1   
   113    40   114 1   
   114    40   115 1   
   115    40   116 1   
   116    41   117 1   
   117    41   118 1   
   118    41   119 1   
@<TRIPOS>SUBSTRUCTURE
     1 QAK         1 TEMP              0 ****  ****    0 ROOT
