@<TRIPOS>MOLECULE
QAM
   47    50     1     0     0
SMALL
abcg2


@<TRIPOS>ATOM
      1 N12         -2.0070   -26.6550    42.8050 ns         1 QAM      -0.464400
      2 C13         -0.7870   -26.1220    43.0780 c          1 QAM       0.606100
      3 C15          0.1520   -28.2660    42.0440 ca         1 QAM      -0.112300
      4 C17         -0.1670   -30.6320    42.4170 ca         1 QAM      -0.106000
      5 C20         -0.0700   -28.4700    40.6840 ca         1 QAM      -0.102000
      6 C26        -13.2890   -23.8380    46.8690 cc         1 QAM       0.638300
      7 C01         -7.7250   -25.0210    45.3650 c6         1 QAM      -0.098400
      8 C02         -9.2440   -25.0860    45.3050 c6         1 QAM       0.209800
      9 C04         -9.3420   -22.7560    44.5360 c6         1 QAM       0.209800
     10 C05         -7.8250   -22.6660    44.5790 c6         1 QAM      -0.098400
     11 C06         -7.2100   -24.0280    44.3390 c6         1 QAM       0.175300
     12 C08         -5.0100   -24.7880    43.9160 cc         1 QAM       0.605700
     13 C11         -3.1940   -26.0670    43.1590 cc         1 QAM       0.493300
     14 C14          0.4190   -26.8890    42.5820 c3         1 QAM      -0.104100
     15 C16          0.1000   -29.3610    42.9050 ca         1 QAM      -0.102000
     16 C18         -0.3870   -30.8250    41.0590 ca         1 QAM      -0.097000
     17 C19         -0.3380   -29.7410    40.1940 ca         1 QAM      -0.106000
     18 C23        -11.1220   -23.6510    45.8710 cc         1 QAM       0.672300
     19 N03         -9.8280   -23.7630    45.4700 nh         1 QAM      -0.749300
     20 N09         -5.3840   -25.8580    43.3100 nd         1 QAM      -0.410000
     21 N10         -4.3310   -26.5970    42.8710 nd         1 QAM      -0.364000
     22 N24        -11.8870   -22.6390    45.6410 nd         1 QAM      -0.388000
     23 N25        -13.1180   -22.7420    46.2160 nd         1 QAM      -0.375000
     24 O21         -0.6820   -25.0680    43.6780 o          1 QAM      -0.577100
     25 S22         -3.2860   -24.5640    44.0210 ss         1 QAM      -0.155800
     26 S28        -11.8950   -24.8910    46.8440 ss         1 QAM      -0.377800
     27 H1          -2.0790   -27.5320    42.3040 hn         1 QAM       0.356500
     28 H2          -0.2000   -31.4730    43.0980 ha         1 QAM       0.119000
     29 H3          -0.0320   -27.6280    40.0020 ha         1 QAM       0.116500
     30 H4          -7.3320   -26.0200    45.1790 hc         1 QAM       0.069950
     31 H5          -7.4100   -24.7110    46.3650 hc         1 QAM       0.069950
     32 H6          -9.5870   -25.7450    46.1040 h1         1 QAM       0.056450
     33 H7          -9.5650   -25.5340    44.3560 h1         1 QAM       0.056450
     34 H8          -9.7700   -21.7930    44.8050 h1         1 QAM       0.056450
     35 H9          -9.6810   -22.9870    43.5170 h1         1 QAM       0.056450
     36 H10         -7.4990   -21.9540    43.8190 hc         1 QAM       0.069950
     37 H11         -7.5100   -22.2840    45.5540 hc         1 QAM       0.069950
     38 H12         -7.4520   -24.3750    43.3280 h1         1 QAM       0.070700
     39 H13          1.1270   -26.9280    43.4130 hc         1 QAM       0.087200
     40 H14          0.8850   -26.2620    41.8170 hc         1 QAM       0.087200
     41 H15          0.2720   -29.2180    43.9660 ha         1 QAM       0.116500
     42 H16         -0.5940   -31.8160    40.6780 ha         1 QAM       0.119000
     43 H17         -0.5040   -29.8840    39.1340 ha         1 QAM       0.119000
     44 H18        -15.2080   -23.6040    47.3620 hn         1 QAM       0.466500
     45 H19        -14.6190   -25.1420    47.6650 hn         1 QAM       0.466500
     46 O07         -5.7820   -23.8630    44.4410 os         1 QAM      -0.436300
     47 N27        -14.3980   -24.1620    47.5880 nv         1 QAM      -1.016900
@<TRIPOS>BOND
     1     1     2 1   
     2     1    13 1   
     3     1    27 1   
     4     2    14 1   
     5     2    24 2   
     6     3     5 ar  
     7     3    14 1   
     8     3    15 ar  
     9     4    15 ar  
    10     4    16 ar  
    11     4    28 1   
    12     5    17 ar  
    13     5    29 1   
    14     6    23 2   
    15     6    26 1   
    16     6    47 1   
    17     7     8 1   
    18     7    11 1   
    19     7    30 1   
    20     7    31 1   
    21     8    19 1   
    22     8    32 1   
    23     8    33 1   
    24     9    10 1   
    25     9    19 1   
    26     9    34 1   
    27     9    35 1   
    28    10    11 1   
    29    10    36 1   
    30    10    37 1   
    31    11    38 1   
    32    11    46 1   
    33    12    20 2   
    34    12    25 1   
    35    12    46 1   
    36    13    21 2   
    37    13    25 1   
    38    14    39 1   
    39    14    40 1   
    40    15    41 1   
    41    16    17 ar  
    42    16    42 1   
    43    17    43 1   
    44    18    19 1   
    45    18    22 2   
    46    18    26 1   
    47    20    21 1   
    48    22    23 1   
    49    44    47 1   
    50    45    47 1   
@<TRIPOS>SUBSTRUCTURE
     1 QAM         1 TEMP              0 ****  ****    0 ROOT
