@<TRIPOS>MOLECULE
QAM
   47    50     1     0     0
SMALL
No Charge or Current Charge


@<TRIPOS>ATOM
      1 N12         -2.1240   -26.0130    42.0400 ns         1 QAM      -0.464400
      2 C13         -0.9230   -26.3320    42.6270 c          1 QAM       0.606100
      3 C15          0.0410   -28.5710    41.9830 ca         1 QAM      -0.112300
      4 C17          0.8240   -30.5040    43.2510 ca         1 QAM      -0.106000
      5 C20         -0.7910   -29.4190    41.2240 ca         1 QAM      -0.102000
      6 C26        -13.1350   -24.4920    47.0160 cc         1 QAM       0.638300
      7 C01         -7.9290   -24.8620    44.5220 c6         1 QAM      -0.098400
      8 C02         -9.4530   -24.7030    44.3220 c6         1 QAM       0.209800
      9 C04         -9.3240   -22.3230    45.0810 c6         1 QAM       0.209800
     10 C05         -7.8010   -22.4600    45.2920 c6         1 QAM      -0.098400
     11 C06         -7.1970   -23.5100    44.3350 c6         1 QAM       0.175300
     12 C08         -4.9540   -24.3200    43.7500 cc         1 QAM       0.605700
     13 C11         -3.2180   -25.3840    42.5870 cc         1 QAM       0.493300
     14 C14          0.0640   -27.0680    41.7140 c3         1 QAM      -0.104100
     15 C16          0.8480   -29.1220    42.9980 ca         1 QAM      -0.102000
     16 C18         -0.0060   -31.3450    42.4920 ca         1 QAM      -0.097000
     17 C19         -0.8140   -30.8010    41.4780 ca         1 QAM      -0.106000
     18 C23        -11.1690   -23.8020    45.9470 cc         1 QAM       0.672300
     19 N03         -9.9940   -23.6480    45.2260 nh         1 QAM      -0.749300
     20 N09         -5.3060   -24.5480    42.4930 nd         1 QAM      -0.410000
     21 N10         -4.2830   -25.1900    41.8170 nd         1 QAM      -0.364000
     22 N24        -11.7210   -22.8230    46.6550 nd         1 QAM      -0.388000
     23 N25        -12.8830   -23.2310    47.2840 nd         1 QAM      -0.375000
     24 O21         -0.6540   -26.0720    43.7900 o          1 QAM      -0.577100
     25 S22         -3.3640   -24.7930    44.2240 ss         1 QAM      -0.155800
     26 S28        -12.0300   -25.3130    45.9920 ss         1 QAM      -0.377800
     27 H1          -2.2150   -26.2930    41.0750 hn         1 QAM       0.356500
     28 H2           1.4490   -30.9230    44.0370 ha         1 QAM       0.119000
     29 H3          -1.4210   -29.0100    40.4370 ha         1 QAM       0.116500
     30 H4          -7.5500   -25.6080    43.8120 hc         1 QAM       0.069950
     31 H5          -7.7330   -25.2550    45.5280 hc         1 QAM       0.069950
     32 H6          -9.9200   -25.6820    44.4920 h1         1 QAM       0.056450
     33 H7          -9.6540   -24.4330    43.2740 h1         1 QAM       0.056450
     34 H8          -9.7070   -21.5860    45.8010 h1         1 QAM       0.056450
     35 H9          -9.5170   -21.9170    44.0760 h1         1 QAM       0.056450
     36 H10         -7.3180   -21.4870    45.1320 hc         1 QAM       0.069950
     37 H11         -7.6010   -22.7460    46.3330 hc         1 QAM       0.069950
     38 H12         -7.3370   -23.1520    43.3030 h1         1 QAM       0.070700
     39 H13          1.0700   -26.6770    41.9060 hc         1 QAM       0.087200
     40 H14         -0.1950   -26.8880    40.6640 hc         1 QAM       0.087200
     41 H15          1.4920   -28.4780    43.5940 ha         1 QAM       0.116500
     42 H16         -0.0240   -32.4150    42.6880 ha         1 QAM       0.119000
     43 H17         -1.4570   -31.4510    40.8890 ha         1 QAM       0.119000
     44 H18        -14.9490   -24.5200    47.8850 hn         1 QAM       0.466500
     45 H19        -14.5080   -25.9750    47.0630 hn         1 QAM       0.466500
     46 O07         -5.7850   -23.6400    44.6090 os         1 QAM      -0.436300
     47 N27        -14.2170   -25.1140    47.5130 nv         1 QAM      -1.016900
@<TRIPOS>BOND
     1     1     2 1   
     2     1    13 1   
     3     1    27 1   
     4     2    14 1   
     5     2    24 2   
     6     3     5 ar  
     7     3    14 1   
     8     3    15 ar  
     9     4    15 ar  
    10     4    16 ar  
    11     4    28 1   
    12     5    17 ar  
    13     5    29 1   
    14     6    23 2   
    15     6    26 1   
    16     6    47 1   
    17     7     8 1   
    18     7    11 1   
    19     7    30 1   
    20     7    31 1   
    21     8    19 1   
    22     8    32 1   
    23     8    33 1   
    24     9    10 1   
    25     9    19 1   
    26     9    34 1   
    27     9    35 1   
    28    10    11 1   
    29    10    36 1   
    30    10    37 1   
    31    11    38 1   
    32    11    46 1   
    33    12    20 2   
    34    12    25 1   
    35    12    46 1   
    36    13    21 2   
    37    13    25 1   
    38    14    39 1   
    39    14    40 1   
    40    15    41 1   
    41    16    17 ar  
    42    16    42 1   
    43    17    43 1   
    44    18    19 1   
    45    18    22 2   
    46    18    26 1   
    47    20    21 1   
    48    22    23 1   
    49    44    47 1   
    50    45    47 1   
@<TRIPOS>SUBSTRUCTURE
     1 QAM         1 TEMP              0 ****  ****    0 ROOT
