@<TRIPOS>MOLECULE
QAN
   67    71     1     0     0
SMALL
No Charge or Current Charge


@<TRIPOS>ATOM
      1 C10         16.0540     3.2190     9.6100 ca         1 QAN       0.374900
      2 C13         15.9470     0.7850    11.3620 cc         1 QAN      -0.172000
      3 C15         14.6570     0.6950    13.1660 cd         1 QAN       0.124900
      4 C17         13.7370     3.7130    10.1700 ca         1 QAN      -0.032800
      5 C20          9.9760     4.0150    11.1070 c3         1 QAN      -0.042900
      6 C21         11.4620     5.4460     9.6250 c          1 QAN       0.554200
      7 C24         13.8460     4.8070     9.2870 ca         1 QAN      -0.012400
      8 C26         14.8020     5.7000     3.9260 c6         1 QAN       0.176800
      9 N02         15.8800     6.6320     3.4960 n3         1 QAN      -0.718600
     10 C03         17.0830     6.5310     4.3640 c6         1 QAN       0.166800
     11 C04         16.7260     6.7700     5.8470 c6         1 QAN      -0.094400
     12 C05         15.6120     5.7990     6.2840 c6         1 QAN       0.237500
     13 N07         15.2670     6.0480     7.6930 nu         1 QAN      -0.949100
     14 C08         15.0720     5.0270     8.6090 ca         1 QAN       0.618900
     15 N09         16.1450     4.2490     8.7460 nb         1 QAN      -0.749000
     16 C11         14.8990     2.9090    10.3620 ca         1 QAN      -0.184500
     17 C12         14.9870     1.7620    11.2930 cd         1 QAN       0.189500
     18 C14         15.7150     0.0800    12.5570 cc         1 QAN      -0.185000
     19 O16         14.2040     1.7630    12.4260 os         1 QAN      -0.237000
     20 C18         12.4280     3.4160    10.7790 cc         1 QAN      -0.108200
     21 C19         11.3520     4.2560    10.5220 cd         1 QAN      -0.158400
     22 O22         10.5470     6.2160     9.3720 o          1 QAN      -0.549000
     23 N23         12.7020     5.6130     9.0760 ns         1 QAN      -0.365100
     24 C25         14.3660     5.9830     5.3820 c6         1 QAN      -0.166700
     25 C27         13.2100     5.0530     5.7620 c          1 QAN       0.609100
     26 O28         12.0850     5.4920     5.9500 o          1 QAN      -0.608100
     27 N29         13.5130     3.7240     5.9750 ns         1 QAN      -0.500900
     28 C30         12.5950     2.7270     6.5370 c6         1 QAN       0.109700
     29 C31         13.3970     1.5380     7.1220 c6         1 QAN      -0.088900
     30 C32         12.4520     0.4830     7.7480 c6         1 QAN      -0.071900
     31 C33         11.4280    -0.0280     6.7060 c6         1 QAN      -0.076400
     32 C34         10.6430     1.1450     6.0670 c6         1 QAN      -0.071900
     33 C35         11.6020     2.2040     5.4660 c6         1 QAN      -0.088900
     34 H1          16.9630     2.6280     9.7130 h4         1 QAN       0.026100
     35 H2          16.7430     0.5820    10.6530 ha         1 QAN       0.143000
     36 H3          14.1590     0.4860    14.1050 h4         1 QAN       0.054100
     37 H4           9.9610     3.1370    11.7620 hc         1 QAN       0.052367
     38 H5           9.6440     4.8750    11.7020 hc         1 QAN       0.052367
     39 H6           9.2350     3.8480    10.3160 hc         1 QAN       0.052367
     40 H8          15.1400     4.6560     3.8320 h1         1 QAN       0.042200
     41 H9          16.9580     7.2330     1.7590 h1         1 QAN       0.033700
     42 H10         16.6140     5.4890     1.8490 h1         1 QAN       0.033700
     43 H11         15.3170     6.6370     1.4400 h1         1 QAN       0.033700
     44 H13         17.5430     5.5360     4.2610 h1         1 QAN       0.036200
     45 H14         17.8390     7.2690     4.0580 h1         1 QAN       0.036200
     46 H15         17.6190     6.6260     6.4690 hc         1 QAN       0.056700
     47 H16         16.4040     7.8110     5.9850 hc         1 QAN       0.056700
     48 H17         16.0070     4.7770     6.1610 h1         1 QAN       0.083700
     49 H18         14.7910     6.9160     7.9190 hn         1 QAN       0.493000
     50 H19         16.2830    -0.7680    12.9250 ha         1 QAN       0.144000
     51 H20         12.2540     2.5380    11.3890 ha         1 QAN       0.201000
     52 H21         12.7740     6.3620     8.4000 hn         1 QAN       0.327500
     53 H22         13.9960     7.0140     5.4440 hc         1 QAN       0.093700
     54 H23         14.4710     3.4440     5.8130 hn         1 QAN       0.316500
     55 H24         12.0260     3.2030     7.3510 h1         1 QAN       0.080700
     56 H25         14.0040     1.0700     6.3360 hc         1 QAN       0.043450
     57 H26         14.0990     1.8980     7.8830 hc         1 QAN       0.043450
     58 H27         11.9240     0.9220     8.6070 hc         1 QAN       0.042700
     59 H28         13.0400    -0.3580     8.1400 hc         1 QAN       0.042700
     60 H29         10.7290    -0.7300     7.1820 hc         1 QAN       0.038700
     61 H30         11.9500    -0.5930     5.9220 hc         1 QAN       0.038700
     62 H31         10.0020     1.6160     6.8250 hc         1 QAN       0.042700
     63 H32          9.9720     0.7620     5.2860 hc         1 QAN       0.042700
     64 H33         12.1550     1.7680     4.6230 hc         1 QAN       0.043450
     65 H34         11.0150     3.0370     5.0570 hc         1 QAN       0.043450
     66 H7          13.9260     5.8130     3.2700 h1         1 QAN       0.042200
     67 C01         16.2100     6.4880     2.0610 c3         1 QAN       0.153100
@<TRIPOS>BOND
     1     1    15 ar  
     2     1    16 ar  
     3     1    34 1   
     4     2    17 2   
     5     2    18 1   
     6     2    35 1   
     7     3    18 2   
     8     3    19 1   
     9     3    36 1   
    10     4     7 ar  
    11     4    16 ar  
    12     4    20 1   
    13     5    21 1   
    14     5    37 1   
    15     5    38 1   
    16     5    39 1   
    17     6    21 1   
    18     6    22 2   
    19     6    23 1   
    20     7    14 ar  
    21     7    23 1   
    22     8     9 1   
    23     8    24 1   
    24     8    40 1   
    25     8    66 1   
    26     9    10 1   
    27     9    67 1   
    28    10    11 1   
    29    10    44 1   
    30    10    45 1   
    31    11    12 1   
    32    11    46 1   
    33    11    47 1   
    34    12    13 1   
    35    12    24 1   
    36    12    48 1   
    37    13    14 1   
    38    13    49 1   
    39    14    15 ar  
    40    16    17 1   
    41    17    19 1   
    42    18    50 1   
    43    20    21 2   
    44    20    51 1   
    45    23    52 1   
    46    24    25 1   
    47    24    53 1   
    48    25    26 2   
    49    25    27 1   
    50    27    28 1   
    51    27    54 1   
    52    28    29 1   
    53    28    33 1   
    54    28    55 1   
    55    29    30 1   
    56    29    56 1   
    57    29    57 1   
    58    30    31 1   
    59    30    58 1   
    60    30    59 1   
    61    31    32 1   
    62    31    60 1   
    63    31    61 1   
    64    32    33 1   
    65    32    62 1   
    66    32    63 1   
    67    33    64 1   
    68    33    65 1   
    69    41    67 1   
    70    42    67 1   
    71    43    67 1   
@<TRIPOS>SUBSTRUCTURE
     1 QAN         1 TEMP              0 ****  ****    0 ROOT
