@<TRIPOS>MOLECULE
QAN
   67    71     1     0     0
SMALL
abcg2


@<TRIPOS>ATOM
      1 C10         15.4470     2.9440     9.2300 ca         1 QAN       0.374900
      2 C13         15.0010     0.4720    11.1010 cc         1 QAN      -0.172000
      3 C15         15.1460     0.9090    13.2730 cd         1 QAN       0.124900
      4 C17         13.7300     3.9540    10.5380 ca         1 QAN      -0.032800
      5 C20         10.8760     5.0740    12.8340 c3         1 QAN      -0.042900
      6 C21         11.7900     6.0400    10.6960 c          1 QAN       0.554200
      7 C24         13.6510     4.9410     9.5640 ca         1 QAN      -0.012400
      8 C26         14.8690     5.6320     3.7220 c6         1 QAN       0.176800
      9 N02         15.8270     6.7060     3.5590 n3         1 QAN      -0.718600
     10 C03         16.8180     6.7030     4.6180 c6         1 QAN       0.166800
     11 C04         16.1680     6.8580     5.9850 c6         1 QAN      -0.094400
     12 C05         15.1460     5.7510     6.2040 c6         1 QAN       0.237500
     13 N07         14.4760     5.8540     7.4810 nu         1 QAN      -0.949100
     14 C08         14.5290     4.8940     8.4410 ca         1 QAN       0.618900
     15 N09         15.3750     3.8940     8.2990 nb         1 QAN      -0.749000
     16 C11         14.6800     2.9130    10.3720 ca         1 QAN      -0.184500
     17 C12         14.8520     1.8080    11.3040 cd         1 QAN       0.189500
     18 C14         15.1960    -0.1120    12.3880 cc         1 QAN      -0.185000
     19 O16         14.9420     2.0770    12.6280 os         1 QAN      -0.237000
     20 C18         12.7890     4.0220    11.6200 cc         1 QAN      -0.108200
     21 C19         11.8670     5.0030    11.7220 cd         1 QAN      -0.158400
     22 O22         10.9700     6.9490    10.7080 o          1 QAN      -0.549000
     23 N23         12.6990     5.9220     9.6810 ns         1 QAN      -0.365100
     24 C25         14.1330     5.7670     5.0570 c6         1 QAN      -0.166700
     25 C27         13.0290     4.7260     5.1790 c          1 QAN       0.609100
     26 O28         11.8720     5.0090     4.8920 o          1 QAN      -0.608100
     27 N29         13.4030     3.5030     5.5830 ns         1 QAN      -0.500900
     28 C30         12.4980     2.3880     5.7940 c6         1 QAN       0.109700
     29 C31         12.8310     1.6880     7.1090 c6         1 QAN      -0.088900
     30 C32         11.9120     0.4950     7.3510 c6         1 QAN      -0.071900
     31 C33         11.9460    -0.4860     6.1850 c6         1 QAN      -0.076400
     32 C34         11.6140     0.2150     4.8720 c6         1 QAN      -0.071900
     33 C35         12.5390     1.4040     4.6260 c6         1 QAN      -0.088900
     34 H1          16.1830     2.1670     9.0550 h4         1 QAN       0.026100
     35 H2          14.9590    -0.0350    10.1510 ha         1 QAN       0.143000
     36 H3          15.2310     0.9590    14.3470 h4         1 QAN       0.054100
     37 H4          11.0040     4.2420    13.5230 hc         1 QAN       0.052367
     38 H5          10.9790     6.0020    13.3980 hc         1 QAN       0.052367
     39 H6           9.8540     5.0480    12.4520 hc         1 QAN       0.052367
     40 H8          15.3520     4.6390     3.6670 h1         1 QAN       0.042200
     41 H9          17.1210     7.5130     2.1340 h1         1 QAN       0.033700
     42 H10         17.0270     5.7470     2.0750 h1         1 QAN       0.033700
     43 H11         15.6840     6.7340     1.4740 h1         1 QAN       0.033700
     44 H13         17.4190     5.7760     4.6070 h1         1 QAN       0.036200
     45 H14         17.5130     7.5290     4.4490 h1         1 QAN       0.036200
     46 H15         16.9330     6.8150     6.7620 hc         1 QAN       0.056700
     47 H16         15.6830     7.8370     6.0530 hc         1 QAN       0.056700
     48 H17         15.6930     4.8070     6.2060 h1         1 QAN       0.083700
     49 H18         14.0910     6.7560     7.7030 hn         1 QAN       0.493000
     50 H19         15.3440    -1.1550    12.6200 ha         1 QAN       0.144000
     51 H20         12.8100     3.2530    12.3790 ha         1 QAN       0.201000
     52 H21         12.5840     6.5980     8.9390 hn         1 QAN       0.327500
     53 H22         13.6250     6.7370     5.0580 hc         1 QAN       0.093700
     54 H23         14.3740     3.3330     5.7970 hn         1 QAN       0.316500
     55 H24         11.4890     2.8010     5.8660 h1         1 QAN       0.080700
     56 H25         13.8720     1.3460     7.0820 hc         1 QAN       0.043450
     57 H26         12.7580     2.3990     7.9350 hc         1 QAN       0.043450
     58 H27         10.8870     0.8530     7.4960 hc         1 QAN       0.042700
     59 H28         12.1980    -0.0030     8.2810 hc         1 QAN       0.042700
     60 H29         11.2480    -1.3070     6.3630 hc         1 QAN       0.038700
     61 H30         12.9440    -0.9340     6.1150 hc         1 QAN       0.038700
     62 H31         10.5760     0.5650     4.9020 hc         1 QAN       0.042700
     63 H32         11.6800    -0.4850     4.0370 hc         1 QAN       0.042700
     64 H33         13.5670     1.0480     4.4950 hc         1 QAN       0.043450
     65 H34         12.2620     1.9180     3.7020 hc         1 QAN       0.043450
     66 H7          14.1480     5.6780     2.9020 h1         1 QAN       0.042200
     67 C01         16.4450     6.6650     2.2530 c3         1 QAN       0.153100
@<TRIPOS>BOND
     1     1    15 ar  
     2     1    16 ar  
     3     1    34 1   
     4     2    17 2   
     5     2    18 1   
     6     2    35 1   
     7     3    18 2   
     8     3    19 1   
     9     3    36 1   
    10     4     7 ar  
    11     4    16 ar  
    12     4    20 1   
    13     5    21 1   
    14     5    37 1   
    15     5    38 1   
    16     5    39 1   
    17     6    21 1   
    18     6    22 2   
    19     6    23 1   
    20     7    14 ar  
    21     7    23 1   
    22     8     9 1   
    23     8    24 1   
    24     8    40 1   
    25     8    66 1   
    26     9    10 1   
    27     9    67 1   
    28    10    11 1   
    29    10    44 1   
    30    10    45 1   
    31    11    12 1   
    32    11    46 1   
    33    11    47 1   
    34    12    13 1   
    35    12    24 1   
    36    12    48 1   
    37    13    14 1   
    38    13    49 1   
    39    14    15 ar  
    40    16    17 1   
    41    17    19 1   
    42    18    50 1   
    43    20    21 2   
    44    20    51 1   
    45    23    52 1   
    46    24    25 1   
    47    24    53 1   
    48    25    26 2   
    49    25    27 1   
    50    27    28 1   
    51    27    54 1   
    52    28    29 1   
    53    28    33 1   
    54    28    55 1   
    55    29    30 1   
    56    29    56 1   
    57    29    57 1   
    58    30    31 1   
    59    30    58 1   
    60    30    59 1   
    61    31    32 1   
    62    31    60 1   
    63    31    61 1   
    64    32    33 1   
    65    32    62 1   
    66    32    63 1   
    67    33    64 1   
    68    33    65 1   
    69    41    67 1   
    70    42    67 1   
    71    43    67 1   
@<TRIPOS>SUBSTRUCTURE
     1 QAN         1 TEMP              0 ****  ****    0 ROOT
