@<TRIPOS>MOLECULE
QAP
   37    38     1     0     0
SMALL
No Charge or Current Charge


@<TRIPOS>ATOM
      1 C1          -3.7040    -0.9110    -0.0000 c3         1 QAP      -0.036100
      2 O1          -1.4110    -0.1820     0.0320 os         1 QAP      -0.449100
      3 C2          -5.1710    -0.5000    -0.0150 ca         1 QAP      -0.087300
      4 O2           6.9630     1.4820     0.1360 oh         1 QAP      -0.512100
      5 C3          -2.7640     0.3080     0.0180 c3         1 QAP       0.167600
      6 O3           7.4310    -1.3090     0.1330 oh         1 QAP      -0.508100
      7 C4          -5.8390    -0.2950    -1.2380 ca         1 QAP      -0.104000
      8 O4          -0.5570     1.9500     0.0550 o          1 QAP      -0.496000
      9 C5          -5.8680    -0.3110     1.1940 ca         1 QAP      -0.104000
     10 C6           3.5060     0.1870     0.0940 ca         1 QAP      -0.077800
     11 C7          -7.1910     0.0900    -1.2520 ca         1 QAP      -0.109000
     12 C8          -7.2200     0.0750     1.1800 ca         1 QAP      -0.109000
     13 C9          -7.8820     0.2750    -0.0430 ca         1 QAP      -0.107000
     14 C10          4.6000     1.0760     0.1090 ca         1 QAP      -0.150000
     15 C11          3.7510    -1.2020     0.0930 ca         1 QAP      -0.074000
     16 C12          2.1180     0.7390     0.0800 ce         1 QAP      -0.068200
     17 C13          5.9210     0.5910     0.1220 ca         1 QAP       0.103100
     18 C14         -0.3980     0.7370     0.0500 c          1 QAP       0.598300
     19 C15          6.1560    -0.8060     0.1210 ca         1 QAP       0.129100
     20 C16          5.0680    -1.6940     0.1060 ca         1 QAP      -0.185000
     21 C17          0.9260     0.0710     0.0620 cf         1 QAP      -0.280200
     22 H1          -3.4960    -1.5360     0.8770 hc         1 QAP       0.059700
     23 H1A         -3.4750    -1.5250    -0.8790 hc         1 QAP       0.059700
     24 HO2          6.5990     2.3930     0.1350 ho         1 QAP       0.462000
     25 H3          -2.9470     0.9250    -0.8710 h1         1 QAP       0.052700
     26 H3A         -2.9690     0.9140     0.9110 h1         1 QAP       0.052700
     27 HO3          7.3790    -2.2880     0.1300 ho         1 QAP       0.463000
     28 H4          -5.3110    -0.4340    -2.1800 ha         1 QAP       0.112000
     29 H5          -5.3630    -0.4620     2.1460 ha         1 QAP       0.112000
     30 H7          -7.7020     0.2460    -2.1990 ha         1 QAP       0.113000
     31 H8          -7.7540     0.2190     2.1170 ha         1 QAP       0.113000
     32 H9          -8.9280     0.5740    -0.0530 ha         1 QAP       0.113000
     33 H10          4.4210     2.1490     0.1100 ha         1 QAP       0.119000
     34 H11          2.9290    -1.9110     0.0820 ha         1 QAP       0.120000
     35 H12          2.0800     1.8310     0.0860 ha         1 QAP       0.192000
     36 H16          5.2340    -2.7690     0.1050 ha         1 QAP       0.118000
     37 H17          0.9030    -1.0150     0.0560 ha         1 QAP       0.198000
@<TRIPOS>BOND
     1     1     3 1   
     2     1     5 1   
     3     1    22 1   
     4     1    23 1   
     5     2     5 1   
     6     2    18 1   
     7     3     7 ar  
     8     3     9 ar  
     9     4    17 1   
    10     4    24 1   
    11     5    25 1   
    12     5    26 1   
    13     6    19 1   
    14     6    27 1   
    15     7    11 ar  
    16     7    28 1   
    17     8    18 2   
    18     9    12 ar  
    19     9    29 1   
    20    10    14 ar  
    21    10    15 ar  
    22    10    16 1   
    23    11    13 ar  
    24    11    30 1   
    25    12    13 ar  
    26    12    31 1   
    27    13    32 1   
    28    14    17 ar  
    29    14    33 1   
    30    15    20 ar  
    31    15    34 1   
    32    16    21 2   
    33    16    35 1   
    34    17    19 ar  
    35    18    21 1   
    36    19    20 ar  
    37    20    36 1   
    38    21    37 1   
@<TRIPOS>SUBSTRUCTURE
     1 QAP         1 TEMP              0 ****  ****    0 ROOT
