@<TRIPOS>MOLECULE
QAP
   37    38     1     0     0
SMALL
bcc


@<TRIPOS>ATOM
      1 C1          -3.6820    -0.9980    -0.0320 c3         1 QAP      -0.036100
      2 O1          -1.3990    -0.3080    -0.0030 os         1 QAP      -0.425900
      3 C2          -5.1090    -0.5220    -0.0230 ca         1 QAP      -0.087300
      4 O2           6.8080     1.5030     0.1520 oh         1 QAP      -0.473100
      5 C3          -2.7400     0.1930    -0.0080 c3         1 QAP       0.144400
      6 O3           7.3620    -1.0630     0.1830 oh         1 QAP      -0.469100
      7 C4          -5.7750    -0.2460    -1.2150 ca         1 QAP      -0.122000
      8 O4          -0.5900     1.7760     0.0110 o          1 QAP      -0.545000
      9 C5          -5.7780    -0.3050     1.1800 ca         1 QAP      -0.122000
     10 C6           3.3910     0.1290     0.0830 ca         1 QAP      -0.077800
     11 C7          -7.0780     0.2340    -1.2070 ca         1 QAP      -0.127000
     12 C8          -7.0810     0.1750     1.1920 ca         1 QAP      -0.127000
     13 C9          -7.7350     0.4470    -0.0020 ca         1 QAP      -0.125000
     14 C10          4.4430     1.0530     0.1010 ca         1 QAP      -0.168000
     15 C11          3.7040    -1.2300     0.0980 ca         1 QAP      -0.092000
     16 C12          2.0280     0.6360     0.0530 ce         1 QAP      -0.018200
     17 C13          5.7640     0.6500     0.1330 ca         1 QAP       0.103100
     18 C14         -0.4080     0.5790     0.0110 c          1 QAP       0.647300
     19 C15          6.0640    -0.7210     0.1490 ca         1 QAP       0.129100
     20 C16          5.0240    -1.6430     0.1300 ca         1 QAP      -0.203000
     21 C17          0.9000    -0.0870     0.0300 cf         1 QAP      -0.230200
     22 H1          -3.4930    -1.6340     0.8360 hc         1 QAP       0.059700
     23 H1A         -3.4920    -1.5990    -0.9240 hc         1 QAP       0.059700
     24 HO2          6.4910     2.4130     0.1360 ho         1 QAP       0.423000
     25 H3          -2.8990     0.8270    -0.8840 h1         1 QAP       0.052700
     26 H3A         -2.9120     0.8030     0.8820 h1         1 QAP       0.052700
     27 HO3          7.4540    -2.0230     0.1950 ho         1 QAP       0.424000
     28 H4          -5.2720    -0.4140    -2.1600 ha         1 QAP       0.130000
     29 H5          -5.2770    -0.5180     2.1170 ha         1 QAP       0.130000
     30 H7          -7.5810     0.4390    -2.1440 ha         1 QAP       0.131000
     31 H8          -7.5870     0.3350     2.1360 ha         1 QAP       0.131000
     32 H9          -8.7510     0.8200     0.0050 ha         1 QAP       0.131000
     33 H10          4.2180     2.1150     0.0890 ha         1 QAP       0.137000
     34 H11          2.9240    -1.9790     0.0860 ha         1 QAP       0.138000
     35 H12          1.9370     1.7180     0.0530 ha         1 QAP       0.142000
     36 H16          5.2520    -2.7030     0.1430 ha         1 QAP       0.136000
     37 H17          0.9090    -1.1700     0.0280 ha         1 QAP       0.148000
@<TRIPOS>BOND
     1     1     3 1   
     2     1     5 1   
     3     1    22 1   
     4     1    23 1   
     5     2     5 1   
     6     2    18 1   
     7     3     7 ar  
     8     3     9 ar  
     9     4    17 1   
    10     4    24 1   
    11     5    25 1   
    12     5    26 1   
    13     6    19 1   
    14     6    27 1   
    15     7    11 ar  
    16     7    28 1   
    17     8    18 2   
    18     9    12 ar  
    19     9    29 1   
    20    10    14 ar  
    21    10    15 ar  
    22    10    16 1   
    23    11    13 ar  
    24    11    30 1   
    25    12    13 ar  
    26    12    31 1   
    27    13    32 1   
    28    14    17 ar  
    29    14    33 1   
    30    15    20 ar  
    31    15    34 1   
    32    16    21 2   
    33    16    35 1   
    34    17    19 ar  
    35    18    21 1   
    36    19    20 ar  
    37    20    36 1   
    38    21    37 1   
@<TRIPOS>SUBSTRUCTURE
     1 QAP         1 TEMP              0 ****  ****    0 ROOT
