@<TRIPOS>MOLECULE
QAQ
   41    44     1     0     0
SMALL
No Charge or Current Charge


@<TRIPOS>ATOM
      1 N1          -1.5100     0.9370    -0.5010 nb         1 QAQ      -0.359000
      2 N3          -3.1490     1.8040     0.9970 nb         1 QAQ      -0.286000
      3 C4           1.7100     2.3580    -0.2990 ca         1 QAQ      -0.065200
      4 C5           2.9200     1.7180    -0.3580 ca         1 QAQ       0.114400
      5 C6           1.4630     0.1610    -0.0930 cc         1 QAQ       0.702700
      6 C7           1.5710     3.7490    -0.4010 ca         1 QAQ      -0.071000
      7 C8           2.7510     4.5050    -0.5630 ca         1 QAQ      -0.120000
      8 C10          4.1020     2.4530    -0.5210 ca         1 QAQ      -0.077000
      9 C13          1.3520    -2.3470     0.1120 ca         1 QAQ       0.364000
     10 C15          3.0250    -3.9880     0.7820 ca         1 QAQ      -0.048000
     11 C17          1.0270    -4.6960    -0.4040 ca         1 QAQ       0.166100
     12 N8          -5.7650    -1.2170     1.4310 n1         1 QAQ      -0.427000
     13 C12         -5.5270    -0.4900     0.5490 c1         1 QAQ       0.271900
     14 N7          -3.7380     0.5090    -0.8610 nu         1 QAQ      -0.914100
     15 C1          -2.7690     1.1090    -0.0830 ca         1 QAQ       0.438900
     16 C3          -2.1290     2.3490     1.6810 ca         1 QAQ       0.217900
     17 N2          -0.8270     2.2380     1.3490 nb         1 QAQ      -0.273000
     18 C2          -0.5350     1.5190     0.2370 ca         1 QAQ       0.324500
     19 N4           0.7860     1.3690    -0.1540 na         1 QAQ      -0.230100
     20 C9           4.0110     3.8600    -0.6230 ca         1 QAQ      -0.110000
     21 N5           2.7840     0.3310    -0.2390 nd         1 QAQ      -0.634100
     22 C18          0.5750    -3.3700    -0.4480 ca         1 QAQ      -0.272000
     23 C14          2.5710    -2.6590     0.7360 ca         1 QAQ      -0.173000
     24 C16          2.2490    -5.0070     0.2070 ca         1 QAQ      -0.174000
     25 O1           0.2760    -5.6870    -0.9540 oh         1 QAQ      -0.532100
     26 H7           0.5960     4.2280    -0.3590 ha         1 QAQ       0.143000
     27 H8           2.6920     5.5880    -0.6450 ha         1 QAQ       0.115000
     28 H10          5.0650     1.9510    -0.5680 ha         1 QAQ       0.130000
     29 H15          3.9710    -4.2270     1.2650 ha         1 QAQ       0.117000
     30 H11         -5.7280     0.0280    -1.4650 h1         1 QAQ       0.086200
     31 H11A        -5.6180     1.4020    -0.3620 h1         1 QAQ       0.086200
     32 HN7         -3.3830     0.0090    -1.6780 hn         1 QAQ       0.518000
     33 H3          -2.3730     2.9260     2.5720 h5         1 QAQ       0.061100
     34 H9           4.9150     4.4510    -0.7500 ha         1 QAQ       0.115000
     35 HN6         -0.1280    -0.9840    -0.1340 hn         1 QAQ       0.539000
     36 H18         -0.3730    -3.1330    -0.9220 ha         1 QAQ       0.102000
     37 H14          3.1660    -1.8750     1.1940 ha         1 QAQ       0.158000
     38 H16          2.5940    -6.0380     0.2400 ha         1 QAQ       0.130000
     39 HO1         -0.5350    -5.2830    -1.3310 ho         1 QAQ       0.460000
     40 N6           0.8650    -1.0510     0.0640 nu         1 QAQ      -0.906200
     41 C11         -5.2010     0.4100    -0.5800 c3         1 QAQ       0.310900
@<TRIPOS>BOND
     1     1    15 ar  
     2     1    18 ar  
     3     2    15 ar  
     4     2    16 ar  
     5     3     4 ar  
     6     3     6 ar  
     7     3    19 1   
     8     4     8 ar  
     9     4    21 1   
    10     5    19 1   
    11     5    21 2   
    12     5    40 1   
    13     6     7 ar  
    14     6    26 1   
    15     7    20 ar  
    16     7    27 1   
    17     8    20 ar  
    18     8    28 1   
    19     9    22 ar  
    20     9    23 ar  
    21     9    40 1   
    22    10    23 ar  
    23    10    24 ar  
    24    10    29 1   
    25    11    22 ar  
    26    11    24 ar  
    27    11    25 1   
    28    12    13 3   
    29    13    41 1   
    30    14    15 1   
    31    14    32 1   
    32    14    41 1   
    33    16    17 ar  
    34    16    33 1   
    35    17    18 ar  
    36    18    19 1   
    37    20    34 1   
    38    22    36 1   
    39    23    37 1   
    40    24    38 1   
    41    25    39 1   
    42    30    41 1   
    43    31    41 1   
    44    35    40 1   
@<TRIPOS>SUBSTRUCTURE
     1 QAQ         1 TEMP              0 ****  ****    0 ROOT
