@<TRIPOS>MOLECULE
QAQ
   41    44     1     0     0
SMALL
bcc


@<TRIPOS>ATOM
      1 N1          -1.4010     0.5040    -0.1000 nb         1 QAQ      -0.885000
      2 N3          -3.2640     1.9510     0.0470 nb         1 QAQ      -0.812000
      3 C4           1.7090     2.4060     0.0740 ca         1 QAQ      -0.065200
      4 C5           2.9310     1.7240     0.0160 ca         1 QAQ       0.114400
      5 C6           1.4550     0.1840    -0.1020 cc         1 QAQ       0.702700
      6 C7           1.6550     3.7870     0.1850 ca         1 QAQ      -0.089000
      7 C8           2.8660     4.4680     0.2350 ca         1 QAQ      -0.138000
      8 C10          4.1330     2.4160     0.0680 ca         1 QAQ      -0.095000
      9 C13          1.3490    -2.2750    -0.2760 ca         1 QAQ       0.225600
     10 C15          3.1110    -3.8950    -0.3810 ca         1 QAQ      -0.066000
     11 C17          0.8400    -4.6360    -0.4350 ca         1 QAQ       0.166100
     12 N8          -5.8990     0.4240     2.1950 n1         1 QAQ      -0.337800
     13 C12         -5.4840     0.1640     1.1550 c1         1 QAQ       0.182700
     14 N7          -3.5350    -0.3110    -0.1830 nu         1 QAQ      -0.858900
     15 C1          -2.7160     0.7380    -0.0760 ca         1 QAQ       0.964900
     16 C3          -2.3920     2.9320     0.1410 ca         1 QAQ       0.743900
     17 N2          -1.0740     2.8170     0.1310 nb         1 QAQ      -0.799000
     18 C2          -0.6330     1.5720     0.0090 ca         1 QAQ       0.850500
     19 N4           0.7350     1.3930    -0.0060 na         1 QAQ      -0.230100
     20 C9           4.0870     3.7980     0.1790 ca         1 QAQ      -0.128000
     21 N5           2.7370     0.3670    -0.0910 nd         1 QAQ      -0.634100
     22 C18          0.4180    -3.3180    -0.3480 ca         1 QAQ      -0.290000
     23 C14          2.7120    -2.5670    -0.2920 ca         1 QAQ      -0.191000
     24 C16          2.2020    -4.9360    -0.4530 ca         1 QAQ      -0.192000
     25 O1          -0.0290    -5.6640    -0.5020 oh         1 QAQ      -0.493100
     26 H7           0.7210     4.3220     0.2320 ha         1 QAQ       0.161000
     27 H8           2.8530     5.5470     0.3210 ha         1 QAQ       0.133000
     28 H10          5.0740     1.8840     0.0220 ha         1 QAQ       0.148000
     29 H15          4.1700    -4.1190    -0.3940 ha         1 QAQ       0.135000
     30 H11         -5.4000    -1.1330    -0.4740 h1         1 QAQ       0.086200
     31 H11A        -5.3060     0.5740    -0.8800 h1         1 QAQ       0.086200
     32 HN7         -3.1360    -1.2350    -0.2300 hn         1 QAQ       0.462800
     33 H3          -2.7900     3.9360     0.2390 h5         1 QAQ       0.061100
     34 H9           5.0080     4.3640     0.2230 ha         1 QAQ       0.133000
     35 HN6         -0.2020    -0.9140    -0.1910 hn         1 QAQ       0.483800
     36 H18         -0.6440    -3.0940    -0.3340 ha         1 QAQ       0.120000
     37 H14          3.4460    -1.7810    -0.2390 ha         1 QAQ       0.176000
     38 H16          2.5330    -5.9640    -0.5210 ha         1 QAQ       0.148000
     39 HO1         -0.9370    -5.3430    -0.4780 ho         1 QAQ       0.421000
     40 N6           0.8110    -0.9940    -0.1910 nu         1 QAQ      -0.712600
     41 C11         -4.9640    -0.1820    -0.1720 c3         1 QAQ       0.310900
@<TRIPOS>BOND
     1     1    15 ar  
     2     1    18 ar  
     3     2    15 ar  
     4     2    16 ar  
     5     3     4 ar  
     6     3     6 ar  
     7     3    19 1   
     8     4     8 ar  
     9     4    21 1   
    10     5    19 1   
    11     5    21 2   
    12     5    40 1   
    13     6     7 ar  
    14     6    26 1   
    15     7    20 ar  
    16     7    27 1   
    17     8    20 ar  
    18     8    28 1   
    19     9    22 ar  
    20     9    23 ar  
    21     9    40 1   
    22    10    23 ar  
    23    10    24 ar  
    24    10    29 1   
    25    11    22 ar  
    26    11    24 ar  
    27    11    25 1   
    28    12    13 3   
    29    13    41 1   
    30    14    15 1   
    31    14    32 1   
    32    14    41 1   
    33    16    17 ar  
    34    16    33 1   
    35    17    18 ar  
    36    18    19 1   
    37    20    34 1   
    38    22    36 1   
    39    23    37 1   
    40    24    38 1   
    41    25    39 1   
    42    30    41 1   
    43    31    41 1   
    44    35    40 1   
@<TRIPOS>SUBSTRUCTURE
     1 QAQ         1 TEMP              0 ****  ****    0 ROOT
