@<TRIPOS>MOLECULE
QAR
   36    39     1     0     0
SMALL
abcg2


@<TRIPOS>ATOM
      1 N1           3.1340    -2.4580    -0.0050 nb         1 QAR      -0.303000
      2 N3           0.9120    -1.7030    -0.0080 nb         1 QAR      -0.336000
      3 C4           0.7560     1.9480    -0.0030 ca         1 QAR      -0.067200
      4 C5          -0.5000     2.5690     0.0010 ca         1 QAR       0.117400
      5 C6          -0.9320     0.4790    -0.0070 cc         1 QAR       0.711700
      6 C7           1.9310     2.6830    -0.0000 ca         1 QAR      -0.073000
      7 C8           1.8130     4.0690     0.0070 ca         1 QAR      -0.126000
      8 C10         -0.6030     3.9540     0.0080 ca         1 QAR      -0.081000
      9 C13         -3.9860     0.0100    -0.0050 cc         1 QAR      -0.222000
     10 C14         -5.1060    -0.7910    -0.0010 cd         1 QAR      -0.164000
     11 N8          -4.6790    -2.0580    -0.0000 na         1 QAR      -0.004200
     12 N9          -3.3520    -2.1620    -0.0040 nd         1 QAR      -0.582800
     13 C12         -2.9200    -0.9130    -0.0070 cc         1 QAR       0.514900
     14 N6          -1.5510    -0.7120    -0.0120 nu         1 QAR      -0.857100
     15 N5          -1.5140     1.6390    -0.0020 nd         1 QAR      -0.645100
     16 C9           0.5690     4.6970     0.0110 ca         1 QAR      -0.113000
     17 N4           0.4700     0.5720    -0.0080 na         1 QAR      -0.230100
     18 C2           1.3880    -0.4640    -0.0090 ca         1 QAR       0.326500
     19 N2           2.6580    -0.1330    -0.0090 nb         1 QAR      -0.323000
     20 C3           1.8350    -2.6670    -0.0080 ca         1 QAR       0.243300
     21 C11          1.3380    -4.0720    -0.0310 c3         1 QAR      -0.146400
     22 C1           3.5080    -1.1670    -0.0060 ca         1 QAR       0.439900
     23 N7           4.8070    -0.9000    -0.0040 nv         1 QAR      -1.055900
     24 H7           2.8990     2.2110    -0.0040 ha         1 QAR       0.136000
     25 H8           2.7140     4.6700     0.0090 ha         1 QAR       0.110000
     26 H10         -1.5740     4.4320     0.0110 ha         1 QAR       0.128000
     27 H14         -6.1550    -0.5420     0.0030 h4         1 QAR       0.152000
     28 HN6         -0.9380    -1.5270    -0.0130 hn         1 QAR       0.560000
     29 H9           0.5160     5.7770     0.0160 ha         1 QAR       0.112000
     30 H11          0.8930    -4.2850    -1.0050 hc         1 QAR       0.068367
     31 H11A         2.1440    -4.7770     0.1450 hc         1 QAR       0.068367
     32 H11B         0.5580    -4.2140     0.7160 hc         1 QAR       0.068367
     33 HN7          5.1360     0.0510    -0.0030 hn         1 QAR       0.513500
     34 HN7A         5.4810    -1.6450    -0.0000 hn         1 QAR       0.513500
     35 HN8         -5.2430    -2.8930     0.0030 hn         1 QAR       0.371000
     36 H13         -3.9380     1.0820    -0.0070 ha         1 QAR       0.175000
@<TRIPOS>BOND
     1     1    20 ar  
     2     1    22 ar  
     3     2    18 ar  
     4     2    20 ar  
     5     3     4 ar  
     6     3     6 ar  
     7     3    17 1   
     8     4     8 ar  
     9     4    15 1   
    10     5    14 1   
    11     5    15 2   
    12     5    17 1   
    13     6     7 ar  
    14     6    24 1   
    15     7    16 ar  
    16     7    25 1   
    17     8    16 ar  
    18     8    26 1   
    19     9    10 2   
    20     9    13 1   
    21     9    36 1   
    22    10    11 1   
    23    10    27 1   
    24    11    12 1   
    25    11    35 1   
    26    12    13 2   
    27    13    14 1   
    28    14    28 1   
    29    16    29 1   
    30    17    18 1   
    31    18    19 ar  
    32    19    22 ar  
    33    20    21 1   
    34    21    30 1   
    35    21    31 1   
    36    21    32 1   
    37    22    23 1   
    38    23    33 1   
    39    23    34 1   
@<TRIPOS>SUBSTRUCTURE
     1 QAR         1 TEMP              0 ****  ****    0 ROOT
