@<TRIPOS>MOLECULE
QAR
   36    39     1     0     0
SMALL
No Charge or Current Charge


@<TRIPOS>ATOM
      1 N1           2.9830    -2.5090     0.3140 nb         1 QAR      -0.303000
      2 N3           1.1840    -1.5300    -0.9090 nb         1 QAR      -0.336000
      3 C4           0.7040     1.9360    -0.4730 ca         1 QAR      -0.067200
      4 C5          -0.4780     2.6160    -0.3380 ca         1 QAR       0.117400
      5 C6          -0.9850     0.5380    -0.1040 cc         1 QAR       0.711700
      6 C7           1.9300     2.5700    -0.7140 ca         1 QAR      -0.073000
      7 C8           1.9220     3.9780    -0.8090 ca         1 QAR      -0.126000
      8 C10         -0.5060     4.0140    -0.4310 ca         1 QAR      -0.081000
      9 C13         -3.9170    -0.0290     0.8030 cc         1 QAR      -0.222000
     10 C14         -5.0420    -0.7640     1.0330 cd         1 QAR      -0.164000
     11 N8          -4.6570    -2.0850     0.7540 na         1 QAR      -0.004200
     12 N9          -3.3170    -2.1790     0.3590 nd         1 QAR      -0.582800
     13 C12         -2.9320    -0.9330     0.3990 cc         1 QAR       0.514900
     14 N6          -1.6550    -0.6270     0.0880 nu         1 QAR      -0.857100
     15 N5          -1.5530     1.7510    -0.1120 nd         1 QAR      -0.645100
     16 C9           0.7090     4.6970    -0.6680 ca         1 QAR      -0.113000
     17 N4           0.3790     0.6210    -0.3450 na         1 QAR      -0.230100
     18 C2           1.2570    -0.4290    -0.1210 ca         1 QAR       0.326500
     19 N2           2.1650    -0.3420     0.8800 nb         1 QAR      -0.323000
     20 C3           2.0580    -2.5260    -0.6600 ca         1 QAR       0.243300
     21 C11          1.9790    -3.7630    -1.5330 c3         1 QAR      -0.146400
     22 C1           2.9770    -1.3910     1.0400 ca         1 QAR       0.439900
     23 N7           3.8830    -1.3070     2.0360 nv         1 QAR      -1.055900
     24 H7           2.8520     2.0030    -0.8260 ha         1 QAR       0.136000
     25 H8           2.8500     4.5130    -0.9940 ha         1 QAR       0.110000
     26 H10         -1.4410     4.5580    -0.3240 ha         1 QAR       0.128000
     27 H14         -6.0370    -0.4800     1.3600 h4         1 QAR       0.152000
     28 HN6         -1.1000    -1.4450    -0.1220 hn         1 QAR       0.560000
     29 H9           0.7120     5.7820    -0.7440 ha         1 QAR       0.112000
     30 H11          1.5680    -3.5300    -2.5220 hc         1 QAR       0.068367
     31 H11A         2.9700    -4.2080    -1.6840 hc         1 QAR       0.068367
     32 H11B         1.3360    -4.5220    -1.0720 hc         1 QAR       0.068367
     33 HN7          4.0630    -0.3900     2.4380 hn         1 QAR       0.513500
     34 HN7A         4.6630    -1.9590     2.0320 hn         1 QAR       0.513500
     35 HN8         -5.2530    -2.9120     0.8240 hn         1 QAR       0.371000
     36 H13         -3.8000     1.0410     0.9150 ha         1 QAR       0.175000
@<TRIPOS>BOND
     1     1    20 ar  
     2     1    22 ar  
     3     2    18 ar  
     4     2    20 ar  
     5     3     4 ar  
     6     3     6 ar  
     7     3    17 1   
     8     4     8 ar  
     9     4    15 1   
    10     5    14 1   
    11     5    15 2   
    12     5    17 1   
    13     6     7 ar  
    14     6    24 1   
    15     7    16 ar  
    16     7    25 1   
    17     8    16 ar  
    18     8    26 1   
    19     9    10 2   
    20     9    13 1   
    21     9    36 1   
    22    10    11 1   
    23    10    27 1   
    24    11    12 1   
    25    11    35 1   
    26    12    13 2   
    27    13    14 1   
    28    14    28 1   
    29    16    29 1   
    30    17    18 1   
    31    18    19 ar  
    32    19    22 ar  
    33    20    21 1   
    34    21    30 1   
    35    21    31 1   
    36    21    32 1   
    37    22    23 1   
    38    23    33 1   
    39    23    34 1   
@<TRIPOS>SUBSTRUCTURE
     1 QAR         1 TEMP              0 ****  ****    0 ROOT
