@<TRIPOS>MOLECULE
QAS
   16    16     1     0     0
SMALL
No Charge or Current Charge


@<TRIPOS>ATOM
      1 O1          -0.8490     2.5570     0.9440 o          1 QAS      -0.727500
      2 C7          -0.9970     1.6850     0.0900 c          1 QAS       0.663500
      3 O2          -1.7950     1.8190    -0.8360 o          1 QAS      -0.727500
      4 C2          -0.0680     0.4360     0.1100 ca         1 QAS       0.354500
      5 N1           1.2840     0.6240     0.2750 nb         1 QAS      -0.708000
      6 C6           2.0920    -0.4450     0.2550 ca         1 QAS       0.468300
      7 S            3.8050    -0.0750     0.4700 sh         1 QAS      -0.569100
      8 C5           1.6330    -1.7550     0.0720 ca         1 QAS      -0.214000
      9 C4           0.2590    -1.9760    -0.0840 ca         1 QAS      -0.076000
     10 C3          -0.6060    -0.8650    -0.0550 ca         1 QAS      -0.159600
     11 C8          -2.0830    -1.0660    -0.1520 c          1 QAS       0.719600
     12 O4          -2.7680    -0.7280     0.8020 o          1 QAS      -0.725500
     13 O3          -2.5150    -1.6960    -1.1060 o          1 QAS      -0.725500
     14 H2           2.3330    -2.5850     0.0620 ha         1 QAS       0.080000
     15 H3          -0.1300    -2.9850    -0.2080 ha         1 QAS       0.111000
     16 H6           3.5800     1.2550     0.5960 hs         1 QAS       0.235800
@<TRIPOS>BOND
     1     1     2 1   
     2     2     3 1   
     3     2     4 1   
     4     4     5 ar  
     5     4    10 ar  
     6     5     6 ar  
     7     6     7 1   
     8     6     8 ar  
     9     7    16 1   
    10     8     9 ar  
    11     8    14 1   
    12     9    10 ar  
    13     9    15 1   
    14    10    11 1   
    15    11    12 1   
    16    11    13 1   
@<TRIPOS>SUBSTRUCTURE
     1 QAS         1 TEMP              0 ****  ****    0 ROOT
