@<TRIPOS>MOLECULE
QAS
   16    16     1     0     0
SMALL
bcc


@<TRIPOS>ATOM
      1 O1          -1.1560     2.1810     1.2920 o          1 QAS      -0.832800
      2 C7          -0.9420     1.6870     0.1720 c          1 QAS       0.874100
      3 O2          -1.2260     2.1550    -0.9440 o          1 QAS      -0.832800
      4 C2          -0.1200     0.4080     0.1500 ca         1 QAS       0.419800
      5 N1           1.1930     0.6300     0.2830 nb         1 QAS      -0.708000
      6 C6           2.0280    -0.3910     0.2240 ca         1 QAS       0.533600
      7 S            3.7590    -0.0720     0.4060 sh         1 QAS      -0.569100
      8 C5           1.6190    -1.7040     0.0230 ca         1 QAS      -0.297300
      9 C4           0.2620    -1.9250    -0.1190 ca         1 QAS      -0.094000
     10 C3          -0.6440    -0.8710    -0.0510 ca         1 QAS      -0.224900
     11 C8          -2.1330    -1.1500    -0.1500 c          1 QAS       0.930200
     12 O4          -2.8960    -0.2640     0.2750 o          1 QAS      -0.830800
     13 O3          -2.4560    -2.2930    -0.5330 o          1 QAS      -0.830800
     14 H2           2.3320    -2.5170    -0.0180 ha         1 QAS       0.098000
     15 H3          -0.1040    -2.9300    -0.2790 ha         1 QAS       0.129000
     16 H6           3.6590     1.2580     0.5030 hs         1 QAS       0.235800
@<TRIPOS>BOND
     1     1     2 1   
     2     2     3 1   
     3     2     4 1   
     4     4     5 ar  
     5     4    10 ar  
     6     5     6 ar  
     7     6     7 1   
     8     6     8 ar  
     9     7    16 1   
    10     8     9 ar  
    11     8    14 1   
    12     9    10 ar  
    13     9    15 1   
    14    10    11 1   
    15    11    12 1   
    16    11    13 1   
@<TRIPOS>SUBSTRUCTURE
     1 QAS         1 TEMP              0 ****  ****    0 ROOT
