@<TRIPOS>MOLECULE
QAU
   18    18     1     0     0
SMALL
abcg2


@<TRIPOS>ATOM
      1 C05         -8.1240   -11.0560   -15.6430 ca         1 QAU      -0.227500
      2 C06         -9.2200   -10.2810   -15.2890 ca         1 QAU      -0.041000
      3 C07         -9.4510    -9.1050   -15.9970 ca         1 QAU      -0.094000
      4 C08         -8.6000    -8.7110   -17.0180 ca         1 QAU      -0.089000
      5 C09         -7.5000    -9.5010   -17.3540 ca         1 QAU       0.121100
      6 C11         -7.2600   -10.6890   -16.6690 ca         1 QAU      -0.117000
      7 N01         -6.7000   -12.0550   -13.6160 n8         1 QAU      -1.020100
      8 O03         -8.9750   -12.9380   -14.0110 o          1 QAU      -0.552500
      9 O04         -7.2060   -13.4940   -15.6700 o          1 QAU      -0.552500
     10 O10         -6.6950    -9.0690   -18.3610 oh         1 QAU      -0.536100
     11 S02         -7.7930   -12.5490   -14.7450 sy         1 QAU       1.156600
     12 H1          -9.8770   -10.5910   -14.4900 ha         1 QAU       0.143000
     13 H2         -10.3050    -8.4880   -15.7460 ha         1 QAU       0.123000
     14 H3          -8.7770    -7.7940   -17.5670 ha         1 QAU       0.133000
     15 H4          -6.4170   -11.3130   -16.9360 ha         1 QAU       0.128000
     16 H5          -6.7900   -12.5950   -12.7600 hn         1 QAU       0.479000
     17 H6          -5.7460   -12.0520   -13.9640 hn         1 QAU       0.479000
     18 H7          -5.9610    -9.6840   -18.4920 ho         1 QAU       0.467000
@<TRIPOS>BOND
     1     1     2 ar  
     2     1     6 ar  
     3     1    11 1   
     4     2     3 ar  
     5     2    12 1   
     6     3     4 ar  
     7     3    13 1   
     8     4     5 ar  
     9     4    14 1   
    10     5     6 ar  
    11     5    10 1   
    12     6    15 1   
    13     7    11 1   
    14     7    16 1   
    15     7    17 1   
    16     8    11 2   
    17     9    11 2   
    18    10    18 1   
@<TRIPOS>SUBSTRUCTURE
     1 QAU         1 TEMP              0 ****  ****    0 ROOT
