@<TRIPOS>MOLECULE
QAU
   18    18     1     0     0
SMALL
No Charge or Current Charge


@<TRIPOS>ATOM
      1 C05         -8.0560   -11.0340   -15.6540 ca         1 QAU      -0.227500
      2 C06         -9.1670   -10.2470   -15.2800 ca         1 QAU      -0.041000
      3 C07         -9.4620    -9.0650   -15.9820 ca         1 QAU      -0.094000
      4 C08         -8.6520    -8.6620   -17.0580 ca         1 QAU      -0.089000
      5 C09         -7.5430    -9.4370   -17.4340 ca         1 QAU       0.121100
      6 C11         -7.2430   -10.6210   -16.7350 ca         1 QAU      -0.117000
      7 N01         -6.6820   -12.0430   -13.5630 n8         1 QAU      -1.020100
      8 O03         -8.8510   -13.0320   -14.0200 o          1 QAU      -0.552500
      9 O04         -6.8340   -13.4410   -15.5410 o          1 QAU      -0.552500
     10 O10         -6.7620    -9.0350   -18.4790 oh         1 QAU      -0.536100
     11 S02         -7.6790   -12.5500   -14.7480 sy         1 QAU       1.156600
     12 H1          -9.8020   -10.5460   -14.4470 ha         1 QAU       0.143000
     13 H2         -10.3190    -8.4610   -15.6920 ha         1 QAU       0.123000
     14 H3          -8.8820    -7.7470   -17.5990 ha         1 QAU       0.133000
     15 H4          -6.3820   -11.2200   -17.0270 ha         1 QAU       0.128000
     16 H5          -7.1430   -12.4570   -12.7570 hn         1 QAU       0.479000
     17 H6          -5.9000   -12.6760   -13.7110 hn         1 QAU       0.479000
     18 H7          -6.0390    -9.6880   -18.6020 ho         1 QAU       0.467000
@<TRIPOS>BOND
     1     1     2 ar  
     2     1     6 ar  
     3     1    11 1   
     4     2     3 ar  
     5     2    12 1   
     6     3     4 ar  
     7     3    13 1   
     8     4     5 ar  
     9     4    14 1   
    10     5     6 ar  
    11     5    10 1   
    12     6    15 1   
    13     7    11 1   
    14     7    16 1   
    15     7    17 1   
    16     8    11 2   
    17     9    11 2   
    18    10    18 1   
@<TRIPOS>SUBSTRUCTURE
     1 QAU         1 TEMP              0 ****  ****    0 ROOT
