@<TRIPOS>MOLECULE
QAV
   65    68     1     0     0
SMALL
bcc


@<TRIPOS>ATOM
      1 O5          45.4900     6.0370   -20.9700 o          1 QAV      -0.846050
      2 C23         44.6910     6.8350   -21.5080 c          1 QAV       0.930100
      3 O4          44.8560     7.4520   -22.5760 o          1 QAV      -0.846050
      4 C22         43.3670     7.0930   -20.7640 c3         1 QAV      -0.205400
      5 C21         43.1810     6.2050   -19.5430 c3         1 QAV      -0.127900
      6 C20         44.2820     6.3990   -18.5320 c          1 QAV       0.640800
      7 O3          44.6490     7.5110   -18.1930 o          1 QAV      -0.548100
      8 C19         44.8830     5.2290   -17.8930 cc         1 QAV      -0.141100
      9 C18         44.6560     3.9030   -18.0840 cd         1 QAV      -0.089700
     10 S1          46.1680     5.5260   -16.7500 ss         1 QAV       0.094500
     11 C24         46.4300     3.8280   -16.5560 ca         1 QAV      -0.012600
     12 C17         45.5320     3.0770   -17.3250 ca         1 QAV      -0.123800
     13 C16         45.6540     1.6810   -17.3300 ca         1 QAV      -0.064500
     14 C25         47.4230     3.2220   -15.7900 ca         1 QAV      -0.167500
     15 C26         47.5360     1.8430   -15.8430 ca         1 QAV       0.130100
     16 O6          48.4940     1.1600   -15.1910 os         1 QAV      -0.345400
     17 C27         49.4310     1.8790   -14.4150 c3         1 QAV       0.122700
     18 C15         46.6530     1.0530   -16.6270 ca         1 QAV      -0.120800
     19 C14         46.8510    -0.4310   -16.7700 c3         1 QAV      -0.004100
     20 C13         47.9660    -0.8380   -17.7440 c3         1 QAV      -0.063400
     21 C12         47.8110    -0.2960   -19.1690 c3         1 QAV      -0.004100
     22 C10         48.1300     1.1700   -19.3550 ca         1 QAV      -0.120800
     23 C11         49.1790     1.7540   -18.6860 ca         1 QAV      -0.064500
     24 C           49.4280     3.1290   -18.7790 ca         1 QAV      -0.123800
     25 C9          47.3440     1.9870   -20.2140 ca         1 QAV       0.130100
     26 O7          46.3420     1.3590   -20.8570 os         1 QAV      -0.345400
     27 C28         45.4890     2.1130   -21.6930 c3         1 QAV       0.122700
     28 C8          47.5800     3.3460   -20.3490 ca         1 QAV      -0.167500
     29 C7          48.6090     3.9110   -19.6040 ca         1 QAV      -0.012600
     30 S           49.0050     5.5920   -19.4820 ss         1 QAV       0.094500
     31 C2          50.2370     5.2460   -18.2950 cc         1 QAV      -0.141100
     32 C1          50.3560     3.9160   -18.0430 cd         1 QAV      -0.089700
     33 C3          50.8910     6.3910   -17.6610 c          1 QAV       0.640800
     34 O           50.5860     7.5160   -18.0160 o          1 QAV      -0.548100
     35 C4          51.9610     6.1520   -16.6280 c3         1 QAV      -0.127900
     36 C5          51.7780     7.0330   -15.4020 c3         1 QAV      -0.205400
     37 C6          50.4350     6.8050   -14.6810 c          1 QAV       0.930100
     38 O1          50.2720     7.4170   -13.6090 o          1 QAV      -0.846050
     39 O2          49.6210     6.0370   -15.2380 o          1 QAV      -0.846050
     40 H2          43.3230     8.1480   -20.4760 hc         1 QAV       0.024200
     41 H3          42.5290     6.9440   -21.4500 hc         1 QAV       0.024200
     42 H4          42.2400     6.4510   -19.0390 hc         1 QAV       0.025450
     43 H5          43.1030     5.1620   -19.8470 hc         1 QAV       0.025450
     44 H6          43.9130     3.5080   -18.7620 ha         1 QAV       0.136500
     45 H7          44.9760     1.0890   -17.9350 ha         1 QAV       0.118500
     46 H8          48.1090     3.8350   -15.2190 ha         1 QAV       0.190500
     47 H9          50.1120     1.1430   -13.9940 h1         1 QAV       0.041367
     48 H10         50.0050     2.5870   -15.0190 h1         1 QAV       0.041367
     49 H11         48.9510     2.4240   -13.5980 h1         1 QAV       0.041367
     50 H12         45.9130    -0.8660   -17.1230 hc         1 QAV       0.030450
     51 H13         47.0550    -0.8910   -15.8010 hc         1 QAV       0.030450
     52 H14         47.9590    -1.9290   -17.8030 hc         1 QAV       0.025700
     53 H15         48.9410    -0.5780   -17.3290 hc         1 QAV       0.025700
     54 H16         46.7940    -0.5020   -19.5060 hc         1 QAV       0.030450
     55 H17         48.4580    -0.8810   -19.8300 hc         1 QAV       0.030450
     56 H18         49.8030     1.1600   -18.0300 ha         1 QAV       0.118500
     57 H19         44.7480     1.4190   -22.0830 h1         1 QAV       0.041367
     58 H20         44.9760     2.9090   -21.1470 h1         1 QAV       0.041367
     59 H21         46.0310     2.5590   -22.5320 h1         1 QAV       0.041367
     60 H22         46.9540     3.9780   -20.9640 ha         1 QAV       0.190500
     61 H23         51.0470     3.4950   -17.3260 ha         1 QAV       0.136500
     62 H24         52.0030     5.1040   -16.3350 hc         1 QAV       0.025450
     63 H25         52.9200     6.3750   -17.1090 hc         1 QAV       0.025450
     64 H26         52.5990     6.8550   -14.7030 hc         1 QAV       0.024200
     65 H27         51.8560     8.0880   -15.6770 hc         1 QAV       0.024200
@<TRIPOS>BOND
     1     1     2 1   
     2     2     3 1   
     3     2     4 1   
     4     4     5 1   
     5     4    40 1   
     6     4    41 1   
     7     5     6 1   
     8     5    42 1   
     9     5    43 1   
    10     6     7 2   
    11     6     8 1   
    12     8     9 2   
    13     8    10 1   
    14     9    12 1   
    15     9    44 1   
    16    10    11 1   
    17    11    12 ar  
    18    11    14 ar  
    19    12    13 ar  
    20    13    18 ar  
    21    13    45 1   
    22    14    15 ar  
    23    14    46 1   
    24    15    16 1   
    25    15    18 ar  
    26    16    17 1   
    27    17    47 1   
    28    17    48 1   
    29    17    49 1   
    30    18    19 1   
    31    19    20 1   
    32    19    50 1   
    33    19    51 1   
    34    20    21 1   
    35    20    52 1   
    36    20    53 1   
    37    21    22 1   
    38    21    54 1   
    39    21    55 1   
    40    22    23 ar  
    41    22    25 ar  
    42    23    24 ar  
    43    23    56 1   
    44    24    29 ar  
    45    24    32 1   
    46    25    26 1   
    47    25    28 ar  
    48    26    27 1   
    49    27    57 1   
    50    27    58 1   
    51    27    59 1   
    52    28    29 ar  
    53    28    60 1   
    54    29    30 1   
    55    30    31 1   
    56    31    32 2   
    57    31    33 1   
    58    32    61 1   
    59    33    34 2   
    60    33    35 1   
    61    35    36 1   
    62    35    62 1   
    63    35    63 1   
    64    36    37 1   
    65    36    64 1   
    66    36    65 1   
    67    37    38 1   
    68    37    39 1   
@<TRIPOS>SUBSTRUCTURE
     1 QAV         1 TEMP              0 ****  ****    0 ROOT
