@<TRIPOS>MOLECULE
QAV
   65    68     1     0     0
SMALL
No Charge or Current Charge


@<TRIPOS>ATOM
      1 O5          45.1040     5.9520   -21.5070 o          1 QAV      -0.740750
      2 C23         43.9120     5.7170   -21.6120 c          1 QAV       0.719500
      3 O4          43.4580     4.6990   -22.1080 o          1 QAV      -0.740750
      4 C22         42.9220     6.7390   -21.0290 c3         1 QAV      -0.205400
      5 C21         42.6010     6.4240   -19.5400 c3         1 QAV      -0.127900
      6 C20         43.7950     6.7030   -18.5950 c          1 QAV       0.640800
      7 O3          44.0430     7.8600   -18.2710 o          1 QAV      -0.548100
      8 C19         44.6020     5.5740   -18.0630 cc         1 QAV      -0.141100
      9 C18         44.4560     4.2220   -18.3430 cd         1 QAV      -0.139700
     10 S1          45.9210     5.8630   -16.8960 ss         1 QAV       0.221400
     11 C24         46.1870     4.0980   -16.7960 ca         1 QAV      -0.139500
     12 C17         45.3610     3.3630   -17.6170 ca         1 QAV      -0.123800
     13 C16         45.4600     1.9680   -17.6930 ca         1 QAV      -0.046500
     14 C25         47.1440     3.4660   -15.9900 ca         1 QAV      -0.149500
     15 C26         47.2630     2.0550   -16.0370 ca         1 QAV       0.130100
     16 O6          48.1790     1.3840   -15.2460 os         1 QAV      -0.368600
     17 C27         49.1910     2.0720   -14.4910 c3         1 QAV       0.145900
     18 C15         46.4330     1.3010   -16.9120 ca         1 QAV      -0.120800
     19 C14         46.5840    -0.2190   -17.0490 c3         1 QAV      -0.004100
     20 C13         47.9420    -0.7010   -17.6360 c3         1 QAV      -0.063400
     21 C12         48.2640    -0.2310   -19.0800 c3         1 QAV      -0.004100
     22 C10         48.4650     1.2830   -19.2210 ca         1 QAV      -0.120800
     23 C11         49.4840     1.9120   -18.4680 ca         1 QAV      -0.046500
     24 C           49.6240     3.3040   -18.5330 ca         1 QAV      -0.123800
     25 C9          47.6290     2.0720   -20.0610 ca         1 QAV       0.130100
     26 O7          46.6470     1.4430   -20.8060 os         1 QAV      -0.368600
     27 C28         45.6730     2.1740   -21.5700 c3         1 QAV       0.145900
     28 C8          47.8000     3.4790   -20.1050 ca         1 QAV      -0.149500
     29 C7          48.8010     4.0720   -19.3240 ca         1 QAV      -0.139500
     30 S           49.1270     5.8260   -19.2170 ss         1 QAV       0.221400
     31 C2          50.4590     5.4850   -18.0780 cc         1 QAV      -0.141100
     32 C1          50.5720     4.1250   -17.8190 cd         1 QAV      -0.139700
     33 C3          51.3010     6.5830   -17.5390 c          1 QAV       0.640800
     34 O           51.0790     7.7520   -17.8390 o          1 QAV      -0.548100
     35 C4          52.4990     6.2560   -16.6140 c3         1 QAV      -0.127900
     36 C5          52.1990     6.5380   -15.1140 c3         1 QAV      -0.205400
     37 C6          51.1850     5.5280   -14.5510 c          1 QAV       0.719500
     38 O1          51.6140     4.4810   -14.0920 o          1 QAV      -0.740750
     39 O2          50.0000     5.8020   -14.6340 o          1 QAV      -0.740750
     40 H2          43.3530     7.7480   -21.0430 hc         1 QAV       0.024200
     41 H3          41.9610     6.6690   -21.5540 hc         1 QAV       0.024200
     42 H4          41.7710     7.0750   -19.2390 hc         1 QAV       0.025450
     43 H5          42.2730     5.3820   -19.4730 hc         1 QAV       0.025450
     44 H6          43.7230     3.8240   -19.0380 ha         1 QAV       0.186500
     45 H7          44.8130     1.4120   -18.3670 ha         1 QAV       0.100500
     46 H8          47.7790     4.0730   -15.3510 ha         1 QAV       0.172500
     47 H9          49.8370     1.3510   -13.9750 h1         1 QAV       0.041367
     48 H10         49.8200     2.6790   -15.1550 h1         1 QAV       0.041367
     49 H11         48.7400     2.7260   -13.7340 h1         1 QAV       0.041367
     50 H12         45.7790    -0.6240   -17.6730 hc         1 QAV       0.030450
     51 H13         46.4520    -0.6820   -16.0640 hc         1 QAV       0.030450
     52 H14         47.9320    -1.7980   -17.6370 hc         1 QAV       0.025700
     53 H15         48.7620    -0.4180   -16.9680 hc         1 QAV       0.025700
     54 H16         47.4770    -0.6050   -19.7440 hc         1 QAV       0.030450
     55 H17         49.1810    -0.7380   -19.4040 hc         1 QAV       0.030450
     56 H18         50.1380     1.3300   -17.8230 ha         1 QAV       0.100500
     57 H19         44.9750     1.4830   -22.0580 h1         1 QAV       0.041367
     58 H20         45.0930     2.8380   -20.9170 h1         1 QAV       0.041367
     59 H21         46.1560     2.7760   -22.3490 h1         1 QAV       0.041367
     60 H22         47.1630     4.1130   -20.7150 ha         1 QAV       0.172500
     61 H23         51.3020     3.6970   -17.1400 ha         1 QAV       0.186500
     62 H24         52.8040     5.2100   -16.7110 hc         1 QAV       0.025450
     63 H25         53.3390     6.8980   -16.9060 hc         1 QAV       0.025450
     64 H26         53.1620     6.4260   -14.6000 hc         1 QAV       0.024200
     65 H27         51.7970     7.5580   -15.0680 hc         1 QAV       0.024200
@<TRIPOS>BOND
     1     1     2 1   
     2     2     3 1   
     3     2     4 1   
     4     4     5 1   
     5     4    40 1   
     6     4    41 1   
     7     5     6 1   
     8     5    42 1   
     9     5    43 1   
    10     6     7 2   
    11     6     8 1   
    12     8     9 2   
    13     8    10 1   
    14     9    12 1   
    15     9    44 1   
    16    10    11 1   
    17    11    12 ar  
    18    11    14 ar  
    19    12    13 ar  
    20    13    18 ar  
    21    13    45 1   
    22    14    15 ar  
    23    14    46 1   
    24    15    16 1   
    25    15    18 ar  
    26    16    17 1   
    27    17    47 1   
    28    17    48 1   
    29    17    49 1   
    30    18    19 1   
    31    19    20 1   
    32    19    50 1   
    33    19    51 1   
    34    20    21 1   
    35    20    52 1   
    36    20    53 1   
    37    21    22 1   
    38    21    54 1   
    39    21    55 1   
    40    22    23 ar  
    41    22    25 ar  
    42    23    24 ar  
    43    23    56 1   
    44    24    29 ar  
    45    24    32 1   
    46    25    26 1   
    47    25    28 ar  
    48    26    27 1   
    49    27    57 1   
    50    27    58 1   
    51    27    59 1   
    52    28    29 ar  
    53    28    60 1   
    54    29    30 1   
    55    30    31 1   
    56    31    32 2   
    57    31    33 1   
    58    32    61 1   
    59    33    34 2   
    60    33    35 1   
    61    35    36 1   
    62    35    62 1   
    63    35    63 1   
    64    36    37 1   
    65    36    64 1   
    66    36    65 1   
    67    37    38 1   
    68    37    39 1   
@<TRIPOS>SUBSTRUCTURE
     1 QAV         1 TEMP              0 ****  ****    0 ROOT
