@<TRIPOS>MOLECULE
QAX
   46    48     1     0     0
SMALL
No Charge or Current Charge


@<TRIPOS>ATOM
      1 C10        -11.8040     3.7900    16.8680 c6         1 QAX       0.170300
      2 C13        -11.6140     5.4460    14.4510 c6         1 QAX      -0.073400
      3 C15         -5.8810     5.4790    15.8890 ca         1 QAX      -0.198000
      4 C20         -4.5590     8.9030    15.3860 ca         1 QAX       0.365300
      5 C22         -5.3840     7.7660    15.2250 ca         1 QAX      -0.147000
      6 C01         -8.7350     7.6330    12.5010 c3         1 QAX       0.143900
      7 C03         -7.2610     6.5790    14.1930 ca         1 QAX       0.107100
      8 C04         -6.9660     5.4440    14.9850 ca         1 QAX       0.182100
      9 C06         -7.5770     3.1310    15.6330 c3         1 QAX       0.171600
     10 C07         -8.6870     2.1210    15.2630 c3         1 QAX      -0.076400
     11 C08        -10.0170     2.3090    16.0360 c3         1 QAX       0.173800
     12 C11        -12.3790     5.2280    16.8540 c6         1 QAX      -0.073400
     13 C12        -12.7960     5.6460    15.4260 c6         1 QAX      -0.075400
     14 C14        -11.0630     4.0010    14.5310 c6         1 QAX       0.170300
     15 C16         -5.0880     6.6310    16.0160 ca         1 QAX       0.062000
     16 C18         -3.3310     7.7910    16.9580 ca         1 QAX       0.155900
     17 C23         -6.4660     7.7410    14.3170 ca         1 QAX      -0.134000
     18 N09        -10.6610     3.6420    15.9240 n3         1 QAX      -0.722600
     19 N17         -4.0530     6.6550    16.8830 nb         1 QAX      -0.192000
     20 N19         -3.5330     8.9200    16.2500 nb         1 QAX      -0.294000
     21 O05         -7.7640     4.3210    14.8480 os         1 QAX      -0.324100
     22 O21         -4.7600    10.0430    14.6740 oh         1 QAX      -0.645300
     23 H102       -11.4840     3.5520    17.8930 h1         1 QAX       0.029700
     24 H101       -12.6050     3.0810    16.6070 h1         1 QAX       0.029700
     25 H132       -11.9310     5.6670    13.4230 hc         1 QAX       0.046450
     26 H131       -10.8110     6.1560    14.6910 hc         1 QAX       0.046450
     27 H151        -5.6390     4.6170    16.5030 ha         1 QAX       0.141000
     28 H012        -9.6070     7.3630    11.8920 h1         1 QAX       0.044033
     29 H011        -9.0120     8.4900    13.1290 h1         1 QAX       0.044033
     30 H013        -7.9280     7.9380    11.8220 h1         1 QAX       0.044033
     31 H061        -7.6200     3.3490    16.7080 h1         1 QAX       0.043700
     32 H062        -6.6000     2.6850    15.4070 h1         1 QAX       0.043700
     33 H071        -8.8640     2.1370    14.1820 hc         1 QAX       0.056200
     34 H072        -8.3160     1.1150    15.4910 hc         1 QAX       0.056200
     35 H081        -9.8070     2.1040    17.0940 h1         1 QAX       0.028700
     36 H082       -10.7200     1.5330    15.7010 h1         1 QAX       0.028700
     37 H111       -11.6240     5.9270    17.2400 hc         1 QAX       0.046450
     38 H112       -13.2410     5.2910    17.5310 hc         1 QAX       0.046450
     39 H122       -13.1220     6.6950    15.4170 hc         1 QAX       0.036200
     40 H121       -13.6540     5.0430    15.0980 hc         1 QAX       0.036200
     41 H142       -11.8320     3.3020    14.1670 h1         1 QAX       0.029700
     42 H141       -10.2100     3.9260    13.8430 h1         1 QAX       0.029700
     43 H181        -2.5000     7.7960    17.6610 h5         1 QAX       0.048100
     44 H231        -6.6750     8.6220    13.7180 ha         1 QAX       0.136000
     45 H211        -4.0650    10.6720    14.9650 ho         1 QAX       0.489000
     46 O02         -8.3290     6.5160    13.3100 os         1 QAX      -0.327100
@<TRIPOS>BOND
     1     1    12 1   
     2     1    18 1   
     3     1    23 1   
     4     1    24 1   
     5     2    13 1   
     6     2    14 1   
     7     2    25 1   
     8     2    26 1   
     9     3     8 ar  
    10     3    15 ar  
    11     3    27 1   
    12     4     5 ar  
    13     4    20 ar  
    14     4    22 1   
    15     5    15 ar  
    16     5    17 ar  
    17     6    28 1   
    18     6    29 1   
    19     6    30 1   
    20     6    46 1   
    21     7     8 ar  
    22     7    17 ar  
    23     7    46 1   
    24     8    21 1   
    25     9    10 1   
    26     9    21 1   
    27     9    31 1   
    28     9    32 1   
    29    10    11 1   
    30    10    33 1   
    31    10    34 1   
    32    11    18 1   
    33    11    35 1   
    34    11    36 1   
    35    12    13 1   
    36    12    37 1   
    37    12    38 1   
    38    13    39 1   
    39    13    40 1   
    40    14    18 1   
    41    14    41 1   
    42    14    42 1   
    43    15    19 ar  
    44    16    19 ar  
    45    16    20 ar  
    46    16    43 1   
    47    17    44 1   
    48    22    45 1   
@<TRIPOS>SUBSTRUCTURE
     1 QAX         1 TEMP              0 ****  ****    0 ROOT
