@<TRIPOS>MOLECULE
QAX
   46    48     1     0     0
SMALL
abcg2


@<TRIPOS>ATOM
      1 C10        -11.5270     3.9460    16.9090 c6         1 QAX       0.170300
      2 C13        -11.4380     5.5410    14.5020 c6         1 QAX      -0.073400
      3 C15         -6.0320     5.3900    15.8560 ca         1 QAX      -0.198000
      4 C20         -4.8940     8.8890    15.5590 ca         1 QAX       0.365300
      5 C22         -5.6370     7.7190    15.2730 ca         1 QAX      -0.147000
      6 C01         -8.6460     7.3690    12.3250 c3         1 QAX       0.143900
      7 C03         -7.2960     6.4560    14.0620 ca         1 QAX       0.107100
      8 C04         -7.0010     5.3120    14.8810 ca         1 QAX       0.182100
      9 C06         -7.5990     3.0590    15.4470 c3         1 QAX       0.171600
     10 C07         -8.7350     2.1050    15.1240 c3         1 QAX      -0.076400
     11 C08        -10.0100     2.3500    15.9330 c3         1 QAX       0.173800
     12 C11        -11.9580     5.4080    16.9480 c6         1 QAX      -0.073400
     13 C12        -12.4690     5.8640    15.5820 c6         1 QAX      -0.075400
     14 C14        -11.0310     4.0730    14.5560 c6         1 QAX       0.170300
     15 C16         -5.3300     6.5940    16.0720 ca         1 QAX       0.062000
     16 C18         -3.7580     7.8010    17.1960 ca         1 QAX       0.155900
     17 C23         -6.6260     7.6350    14.2660 ca         1 QAX      -0.134000
     18 N09        -10.5180     3.7150    15.8770 n3         1 QAX      -0.722600
     19 N17         -4.3700     6.6530    17.0440 nb         1 QAX      -0.192000
     20 N19         -3.9730     8.9380    16.4960 nb         1 QAX      -0.294000
     21 O05         -7.7340     4.2230    14.6110 os         1 QAX      -0.324100
     22 O21         -5.1440     9.9920    14.8400 oh         1 QAX      -0.645300
     23 H102       -11.1040     3.6520    17.8720 h1         1 QAX       0.029700
     24 H101       -12.4150     3.3100    16.7360 h1         1 QAX       0.029700
     25 H132       -11.8330     5.7700    13.5080 hc         1 QAX       0.046450
     26 H131       -10.5460     6.1560    14.6440 hc         1 QAX       0.046450
     27 H151        -5.7870     4.5400    16.4740 ha         1 QAX       0.141000
     28 H012        -9.4290     6.9970    11.6710 h1         1 QAX       0.044033
     29 H011        -9.0350     8.1770    12.9480 h1         1 QAX       0.044033
     30 H013        -7.8070     7.7360    11.7290 h1         1 QAX       0.044033
     31 H061        -7.6360     3.3640    16.4960 h1         1 QAX       0.043700
     32 H062        -6.6250     2.6050    15.2480 h1         1 QAX       0.043700
     33 H071        -8.9260     2.1370    14.0490 hc         1 QAX       0.056200
     34 H072        -8.4010     1.0890    15.3450 hc         1 QAX       0.056200
     35 H081        -9.7930     2.1310    16.9810 h1         1 QAX       0.028700
     36 H082       -10.7780     1.6240    15.6110 h1         1 QAX       0.028700
     37 H111       -11.1010     6.0220    17.2420 hc         1 QAX       0.046450
     38 H112       -12.7280     5.5370    17.7130 hc         1 QAX       0.046450
     39 H122       -12.6940     6.9340    15.5930 hc         1 QAX       0.036200
     40 H121       -13.4050     5.3420    15.3550 hc         1 QAX       0.036200
     41 H142       -11.9020     3.4400    14.2990 h1         1 QAX       0.029700
     42 H141       -10.2580     3.8780    13.8150 h1         1 QAX       0.029700
     43 H181        -2.9930     7.8610    17.9640 h5         1 QAX       0.048100
     44 H231        -6.8410     8.5050    13.6670 ha         1 QAX       0.136000
     45 H211        -4.5600    10.7010    15.1550 ho         1 QAX       0.489000
     46 O02         -8.2510     6.2570    13.1290 os         1 QAX      -0.327100
@<TRIPOS>BOND
     1     1    12 1   
     2     1    18 1   
     3     1    23 1   
     4     1    24 1   
     5     2    13 1   
     6     2    14 1   
     7     2    25 1   
     8     2    26 1   
     9     3     8 ar  
    10     3    15 ar  
    11     3    27 1   
    12     4     5 ar  
    13     4    20 ar  
    14     4    22 1   
    15     5    15 ar  
    16     5    17 ar  
    17     6    28 1   
    18     6    29 1   
    19     6    30 1   
    20     6    46 1   
    21     7     8 ar  
    22     7    17 ar  
    23     7    46 1   
    24     8    21 1   
    25     9    10 1   
    26     9    21 1   
    27     9    31 1   
    28     9    32 1   
    29    10    11 1   
    30    10    33 1   
    31    10    34 1   
    32    11    18 1   
    33    11    35 1   
    34    11    36 1   
    35    12    13 1   
    36    12    37 1   
    37    12    38 1   
    38    13    39 1   
    39    13    40 1   
    40    14    18 1   
    41    14    41 1   
    42    14    42 1   
    43    15    19 ar  
    44    16    19 ar  
    45    16    20 ar  
    46    16    43 1   
    47    17    44 1   
    48    22    45 1   
@<TRIPOS>SUBSTRUCTURE
     1 QAX         1 TEMP              0 ****  ****    0 ROOT
