@<TRIPOS>MOLECULE
QAY
   31    33     1     0     0
SMALL
No Charge or Current Charge


@<TRIPOS>ATOM
      1 N           79.7470    60.1610    12.8620 n8         1 QAY      -1.005200
      2 O           89.6080    66.0540    13.8920 o          1 QAY      -0.518000
      3 N1          84.0860    64.1350    12.3030 na         1 QAY       0.092300
      4 N2          83.4850    64.3170    11.0710 nc         1 QAY      -0.479800
      5 N3          86.8060    63.4160    12.4030 nc         1 QAY      -0.613100
      6 N4          89.0400    64.0690    12.9990 ns         1 QAY      -0.429400
      7 N5          84.5690    66.3000    13.2510 nb         1 QAY      -0.634000
      8 C8          80.5040    61.4130    12.6390 c3         1 QAY       0.149800
      9 C9          82.0070    61.1530    12.3900 c3         1 QAY       0.006900
     10 C10         82.7800    62.4280    12.1630 cd         1 QAY      -0.204300
     11 C11         83.6850    63.0090    13.0110 cc         1 QAY      -0.110000
     12 C12         82.7020    63.2560    11.0110 cd         1 QAY       0.247900
     13 C13         84.9990    65.0790    12.8130 ca         1 QAY       0.483500
     14 C14         86.3880    64.6980    12.8650 ca         1 QAY       0.120400
     15 C15         88.1190    63.1910    12.5050 cd         1 QAY       0.507800
     16 C16         88.7480    65.3030    13.4590 c          1 QAY       0.570600
     17 C17         87.3040    65.6430    13.3850 ca         1 QAY      -0.156600
     18 C18         86.8310    66.8950    13.8250 ca         1 QAY      -0.106000
     19 C19         85.4660    67.1780    13.7400 ca         1 QAY       0.340900
     20 HN          78.7500    60.3880    12.9710 hn         1 QAY       0.392500
     21 HNA         79.7700    59.5980    12.0030 hn         1 QAY       0.392500
     22 HN4         90.0130    63.8040    13.0340 hn         1 QAY       0.338500
     23 H8          80.0730    61.9350    11.7730 h1         1 QAY       0.032200
     24 H8A         80.3870    62.0560    13.5220 h1         1 QAY       0.032200
     25 H9          82.4240    60.6120    13.2480 hc         1 QAY       0.051200
     26 H9A         82.1210    60.4950    11.5200 hc         1 QAY       0.051200
     27 H11         84.0590    62.7390    13.9920 h4         1 QAY       0.164000
     28 H12         82.0860    63.1080    10.1330 h4         1 QAY       0.038100
     29 H15         88.5640    62.2550    12.1890 h5         1 QAY       0.056800
     30 H18         87.5070    67.6440    14.2300 ha         1 QAY       0.151000
     31 H19         85.0750    68.1380    14.0750 h4         1 QAY       0.036100
@<TRIPOS>BOND
     1     1     8 1   
     2     1    20 1   
     3     1    21 1   
     4     2    16 2   
     5     3     4 1   
     6     3    11 1   
     7     3    13 1   
     8     4    12 2   
     9     5    14 1   
    10     5    15 2   
    11     6    15 1   
    12     6    16 1   
    13     6    22 1   
    14     7    13 ar  
    15     7    19 ar  
    16     8     9 1   
    17     8    23 1   
    18     8    24 1   
    19     9    10 1   
    20     9    25 1   
    21     9    26 1   
    22    10    11 2   
    23    10    12 1   
    24    11    27 1   
    25    12    28 1   
    26    13    14 ar  
    27    14    17 ar  
    28    15    29 1   
    29    16    17 1   
    30    17    18 ar  
    31    18    19 ar  
    32    18    30 1   
    33    19    31 1   
@<TRIPOS>SUBSTRUCTURE
     1 QAY         1 TEMP              0 ****  ****    0 ROOT
