@<TRIPOS>MOLECULE
QAY
   31    33     1     0     0
SMALL
abcg2


@<TRIPOS>ATOM
      1 N           80.1140    59.9490    12.9300 n8         1 QAY      -1.005200
      2 O           89.5030    65.9250    14.2140 o          1 QAY      -0.518000
      3 N1          84.0490    64.2630    12.1770 na         1 QAY       0.092300
      4 N2          83.1310    64.6830    11.2640 nc         1 QAY      -0.479800
      5 N3          86.7120    63.3810    12.6590 nc         1 QAY      -0.613100
      6 N4          88.8590    63.8750    13.4660 ns         1 QAY      -0.429400
      7 N5          84.6760    66.4060    12.8120 nb         1 QAY      -0.634000
      8 C8          80.7540    61.2680    12.8650 c3         1 QAY       0.149800
      9 C9          82.0190    61.2100    12.0050 c3         1 QAY       0.006900
     10 C10         82.7010    62.5360    11.8930 cd         1 QAY      -0.204300
     11 C11         83.8100    62.9760    12.5730 cc         1 QAY      -0.110000
     12 C12         82.3300    63.6440    11.0890 cd         1 QAY       0.247900
     13 C13         85.0390    65.1500    12.6510 ca         1 QAY       0.483500
     14 C14         86.3560    64.6870    12.9190 ca         1 QAY       0.120400
     15 C15         87.9230    63.0390    12.9350 cd         1 QAY       0.507800
     16 C16         88.6290    65.2090    13.7480 c          1 QAY       0.570600
     17 C17         87.2610    65.6340    13.4280 ca         1 QAY      -0.156600
     18 C18         86.8620    66.9590    13.6060 ca         1 QAY      -0.106000
     19 C19         85.5710    67.2980    13.2660 ca         1 QAY       0.340900
     20 HN          79.3000    59.9920    13.5350 hn         1 QAY       0.392500
     21 HNA         79.7640    59.6960    12.0100 hn         1 QAY       0.392500
     22 HN4         89.7870    63.5160    13.6560 hn         1 QAY       0.338500
     23 H8          80.0920    62.0490    12.4680 h1         1 QAY       0.032200
     24 H8A         81.0270    61.5670    13.8800 h1         1 QAY       0.032200
     25 H9          82.7040    60.4740    12.4310 hc         1 QAY       0.051200
     26 H9A         81.7480    60.8520    11.0070 hc         1 QAY       0.051200
     27 H11         84.4350    62.4870    13.2970 h4         1 QAY       0.164000
     28 H12         81.5140    63.7090    10.3840 h4         1 QAY       0.038100
     29 H15         88.2610    62.0280    12.7450 h5         1 QAY       0.056800
     30 H18         87.5550    67.6930    13.9930 ha         1 QAY       0.151000
     31 H19         85.2180    68.3170    13.3700 h4         1 QAY       0.036100
@<TRIPOS>BOND
     1     1     8 1   
     2     1    20 1   
     3     1    21 1   
     4     2    16 2   
     5     3     4 1   
     6     3    11 1   
     7     3    13 1   
     8     4    12 2   
     9     5    14 1   
    10     5    15 2   
    11     6    15 1   
    12     6    16 1   
    13     6    22 1   
    14     7    13 ar  
    15     7    19 ar  
    16     8     9 1   
    17     8    23 1   
    18     8    24 1   
    19     9    10 1   
    20     9    25 1   
    21     9    26 1   
    22    10    11 2   
    23    10    12 1   
    24    11    27 1   
    25    12    28 1   
    26    13    14 ar  
    27    14    17 ar  
    28    15    29 1   
    29    16    17 1   
    30    17    18 ar  
    31    18    19 ar  
    32    18    30 1   
    33    19    31 1   
@<TRIPOS>SUBSTRUCTURE
     1 QAY         1 TEMP              0 ****  ****    0 ROOT
