@<TRIPOS>MOLECULE
QAZ
   57    60     1     0     0
SMALL
abcg2


@<TRIPOS>ATOM
      1 C17         14.6550     5.8710     5.6880 c6         1 QAZ       0.232500
      2 C22         16.2680     6.8560     4.0550 c6         1 QAZ       0.161800
      3 C01         11.2420     5.7920    12.8680 c3         1 QAZ      -0.042900
      4 C05         12.0130     5.5690    11.6110 cc         1 QAZ      -0.155400
      5 C06         12.8880     4.5540    11.4480 cd         1 QAZ      -0.113200
      6 C08         13.6210     4.3600    10.2320 ca         1 QAZ      -0.058800
      7 C09         14.5140     3.2910    10.0330 ca         1 QAZ      -0.168000
      8 C11         15.1320     3.1930     8.8170 ca         1 QAZ       0.352900
      9 N13         14.9630     4.0800     7.8280 nb         1 QAZ      -0.754000
     10 C14         14.1550     5.1080     7.9910 ca         1 QAZ       0.607900
     11 N15         13.9970     5.9970     6.9710 nu         1 QAZ      -0.944100
     12 C19         15.6220     7.0220     5.4230 c6         1 QAZ      -0.097400
     13 N25         15.2420     6.7950     3.0300 n7         1 QAZ      -0.864400
     14 C27         14.3640     5.6570     3.2120 c6         1 QAZ       0.168800
     15 C30         13.6300     5.7890     4.5520 c6         1 QAZ      -0.159700
     16 C32         12.5870     4.6890     4.6900 c          1 QAZ       0.608100
     17 O33         11.4570     4.8540     4.2420 o          1 QAZ      -0.614100
     18 N34         12.9740     3.5460     5.2730 ns         1 QAZ      -0.499900
     19 C36         12.0980     2.4090     5.4850 c6         1 QAZ       0.111700
     20 C38         12.4570     1.7160     6.7960 c6         1 QAZ      -0.088400
     21 C41         11.5570     0.5110     7.0460 c6         1 QAZ      -0.071900
     22 C44         11.5960    -0.4720     5.8810 c6         1 QAZ      -0.076400
     23 C47         11.2460     0.2220     4.5680 c6         1 QAZ      -0.071900
     24 C50         12.1510     1.4250     4.3170 c6         1 QAZ      -0.088400
     25 C53         13.4180     5.2650     9.2000 ca         1 QAZ      -0.009400
     26 N54         12.5050     6.2770     9.3750 ns         1 QAZ      -0.365100
     27 C56         11.7720     6.5010    10.5090 c          1 QAZ       0.554200
     28 O57         10.9660     7.4220    10.5660 o          1 QAZ      -0.550000
     29 H1          15.2520     4.9580     5.7150 h1         1 QAZ       0.082700
     30 H2          16.8990     5.9520     4.0730 h1         1 QAZ       0.034700
     31 H3          16.9270     7.7010     3.8500 h1         1 QAZ       0.034700
     32 H4          11.4930     5.0430    13.6170 hc         1 QAZ       0.053033
     33 H5          11.4500     6.7780    13.2870 hc         1 QAZ       0.053033
     34 H6          10.1670     5.7460    12.6850 hc         1 QAZ       0.053033
     35 H8          14.6900     2.5660    10.8150 ha         1 QAZ       0.129000
     36 H9          15.8090     2.3740     8.6060 h4         1 QAZ       0.021100
     37 H10         13.6610     6.9200     7.1890 hn         1 QAZ       0.486000
     38 H11         16.3900     7.0420     6.1980 hc         1 QAZ       0.054700
     39 H12         15.0870     7.9760     5.4630 hc         1 QAZ       0.054700
     40 H13         15.6740     6.7420     2.1170 hn         1 QAZ       0.420000
     41 H15         13.6400     5.6340     2.3960 h1         1 QAZ       0.042700
     42 H16         14.9010     4.6930     3.1970 h1         1 QAZ       0.042700
     43 H17         13.0670     6.7280     4.5280 hc         1 QAZ       0.093700
     44 H18         13.9130     3.4650     5.6310 hn         1 QAZ       0.323500
     45 H19         11.0780     2.7940     5.5660 h1         1 QAZ       0.075700
     46 H20         13.5030     1.3880     6.7570 hc         1 QAZ       0.044450
     47 H21         12.3840     2.4260     7.6240 hc         1 QAZ       0.044450
     48 H22         10.5280     0.8560     7.1960 hc         1 QAZ       0.041700
     49 H23         11.8540     0.0170     7.9740 hc         1 QAZ       0.041700
     50 H24         10.9090    -1.3020     6.0650 hc         1 QAZ       0.038700
     51 H25         12.5990    -0.9070     5.8060 hc         1 QAZ       0.038700
     52 H26         10.2030     0.5550     4.6020 hc         1 QAZ       0.041700
     53 H27         11.3200    -0.4790     3.7340 hc         1 QAZ       0.041700
     54 H28         13.1850     1.0870     4.1830 hc         1 QAZ       0.044450
     55 H29         11.8610     1.9330     3.3950 hc         1 QAZ       0.044450
     56 H30         12.2840     6.8910     8.6040 hn         1 QAZ       0.328500
     57 H7          13.0550     3.8520    12.2570 ha         1 QAZ       0.191000
@<TRIPOS>BOND
     1     1    11 1   
     2     1    12 1   
     3     1    15 1   
     4     1    29 1   
     5     2    12 1   
     6     2    13 1   
     7     2    30 1   
     8     2    31 1   
     9     3     4 1   
    10     3    32 1   
    11     3    33 1   
    12     3    34 1   
    13     4     5 2   
    14     4    27 1   
    15     5     6 1   
    16     5    57 1   
    17     6     7 ar  
    18     6    25 ar  
    19     7     8 ar  
    20     7    35 1   
    21     8     9 ar  
    22     8    36 1   
    23     9    10 ar  
    24    10    11 1   
    25    10    25 ar  
    26    11    37 1   
    27    12    38 1   
    28    12    39 1   
    29    13    14 1   
    30    13    40 1   
    31    14    15 1   
    32    14    41 1   
    33    14    42 1   
    34    15    16 1   
    35    15    43 1   
    36    16    17 2   
    37    16    18 1   
    38    18    19 1   
    39    18    44 1   
    40    19    20 1   
    41    19    24 1   
    42    19    45 1   
    43    20    21 1   
    44    20    46 1   
    45    20    47 1   
    46    21    22 1   
    47    21    48 1   
    48    21    49 1   
    49    22    23 1   
    50    22    50 1   
    51    22    51 1   
    52    23    24 1   
    53    23    52 1   
    54    23    53 1   
    55    24    54 1   
    56    24    55 1   
    57    25    26 1   
    58    26    27 1   
    59    26    56 1   
    60    27    28 2   
@<TRIPOS>SUBSTRUCTURE
     1 QAZ         1 TEMP              0 ****  ****    0 ROOT
