@<TRIPOS>MOLECULE
QAZ
   57    60     1     0     0
SMALL
No Charge or Current Charge


@<TRIPOS>ATOM
      1 C17         15.1420     6.0010     5.6450 c6         1 QAZ       0.232500
      2 C22         16.4930     6.6280     3.5970 c6         1 QAZ       0.161800
      3 C01         10.0930     4.2050    11.1920 c3         1 QAZ      -0.042900
      4 C05         11.3560     4.4840    10.4110 cc         1 QAZ      -0.155400
      5 C06         12.5550     3.8200    10.6170 cd         1 QAZ      -0.113200
      6 C08         13.7410     4.1340     9.8180 ca         1 QAZ      -0.058800
      7 C09         14.9610     3.4600     9.9860 ca         1 QAZ      -0.168000
      8 C11         16.0480     3.7920     9.1580 ca         1 QAZ       0.352900
      9 N13         15.9840     4.7430     8.1990 nb         1 QAZ      -0.754000
     10 C14         14.8220     5.3980     8.0550 ca         1 QAZ       0.607900
     11 N15         14.8590     6.3460     7.0470 nu         1 QAZ      -0.944100
     12 C19         16.2070     6.9650     5.0760 c6         1 QAZ      -0.097400
     13 N25         15.2410     6.6170     2.8040 n7         1 QAZ      -0.864400
     14 C27         14.2130     5.6970     3.3470 c6         1 QAZ       0.168800
     15 C30         13.8440     6.0810     4.7990 c6         1 QAZ      -0.159700
     16 C32         12.7420     5.1520     5.3200 c          1 QAZ       0.608100
     17 O33         11.6190     5.5760     5.5520 o          1 QAZ      -0.614100
     18 N34         13.0960     3.8500     5.6070 ns         1 QAZ      -0.499900
     19 C36         12.2380     2.8680     6.2770 c6         1 QAZ       0.111700
     20 C38         13.1050     1.7670     6.9370 c6         1 QAZ      -0.088400
     21 C41         12.2220     0.7250     7.6660 c6         1 QAZ      -0.071900
     22 C44         11.1990     0.0880     6.6940 c6         1 QAZ      -0.076400
     23 C47         10.3460     1.1720     5.9880 c6         1 QAZ      -0.071900
     24 C50         11.2420     2.2200     5.2800 c6         1 QAZ      -0.088400
     25 C53         13.6640     5.1290     8.8350 ca         1 QAZ      -0.009400
     26 N54         12.4110     5.7740     8.6580 ns         1 QAZ      -0.365100
     27 C56         11.2500     5.5400     9.3580 c          1 QAZ       0.554200
     28 O57         10.2310     6.1670     9.1060 o          1 QAZ      -0.550000
     29 H1          15.5600     4.9830     5.5790 h1         1 QAZ       0.082700
     30 H2          16.9740     5.6400     3.5330 h1         1 QAZ       0.034700
     31 H3          17.1910     7.3660     3.1760 h1         1 QAZ       0.034700
     32 H4          10.2510     3.4260    11.9480 hc         1 QAZ       0.053033
     33 H5           9.7460     5.1060    11.7130 hc         1 QAZ       0.053033
     34 H6           9.2880     3.8650    10.5290 hc         1 QAZ       0.053033
     35 H8          15.0720     2.6800    10.7340 ha         1 QAZ       0.129000
     36 H9          17.0010     3.2740     9.2630 h4         1 QAZ       0.021100
     37 H10         14.2810     7.1630     7.2230 hn         1 QAZ       0.486000
     38 H11         17.1350     6.8900     5.6580 hc         1 QAZ       0.054700
     39 H12         15.8630     8.0050     5.1580 hc         1 QAZ       0.054700
     40 H13         15.4620     6.3420     1.8370 hn         1 QAZ       0.420000
     41 H15         13.3130     5.7470     2.7150 h1         1 QAZ       0.042700
     42 H16         14.5860     4.6610     3.3090 h1         1 QAZ       0.042700
     43 H17         13.4450     7.1030     4.8050 hc         1 QAZ       0.093700
     44 H18         14.0500     3.5820     5.4020 hn         1 QAZ       0.323500
     45 H19         11.6690     3.3860     7.0640 h1         1 QAZ       0.075700
     46 H20         13.7180     1.2640     6.1760 hc         1 QAZ       0.044450
     47 H21         13.8040     2.2190     7.6510 hc         1 QAZ       0.044450
     48 H22         11.6940     1.2070     8.5010 hc         1 QAZ       0.041700
     49 H23         12.8550    -0.0570     8.1070 hc         1 QAZ       0.041700
     50 H24         10.5440    -0.6040     7.2420 hc         1 QAZ       0.038700
     51 H25         11.7280    -0.5120     5.9420 hc         1 QAZ       0.038700
     52 H26          9.7030     1.6740     6.7250 hc         1 QAZ       0.041700
     53 H27          9.6740     0.7000     5.2580 hc         1 QAZ       0.041700
     54 H28         11.7920     1.7420     4.4570 hc         1 QAZ       0.044450
     55 H29         10.6090     2.9930     4.8250 hc         1 QAZ       0.044450
     56 H30         12.3270     6.4330     7.8950 hn         1 QAZ       0.328500
     57 H7          12.6140     3.0510    11.3820 ha         1 QAZ       0.191000
@<TRIPOS>BOND
     1     1    11 1   
     2     1    12 1   
     3     1    15 1   
     4     1    29 1   
     5     2    12 1   
     6     2    13 1   
     7     2    30 1   
     8     2    31 1   
     9     3     4 1   
    10     3    32 1   
    11     3    33 1   
    12     3    34 1   
    13     4     5 2   
    14     4    27 1   
    15     5     6 1   
    16     5    57 1   
    17     6     7 ar  
    18     6    25 ar  
    19     7     8 ar  
    20     7    35 1   
    21     8     9 ar  
    22     8    36 1   
    23     9    10 ar  
    24    10    11 1   
    25    10    25 ar  
    26    11    37 1   
    27    12    38 1   
    28    12    39 1   
    29    13    14 1   
    30    13    40 1   
    31    14    15 1   
    32    14    41 1   
    33    14    42 1   
    34    15    16 1   
    35    15    43 1   
    36    16    17 2   
    37    16    18 1   
    38    18    19 1   
    39    18    44 1   
    40    19    20 1   
    41    19    24 1   
    42    19    45 1   
    43    20    21 1   
    44    20    46 1   
    45    20    47 1   
    46    21    22 1   
    47    21    48 1   
    48    21    49 1   
    49    22    23 1   
    50    22    50 1   
    51    22    51 1   
    52    23    24 1   
    53    23    52 1   
    54    23    53 1   
    55    24    54 1   
    56    24    55 1   
    57    25    26 1   
    58    26    27 1   
    59    26    56 1   
    60    27    28 2   
@<TRIPOS>SUBSTRUCTURE
     1 QAZ         1 TEMP              0 ****  ****    0 ROOT
