@<TRIPOS>MOLECULE
QB0
   20    20     1     0     0
SMALL
No Charge or Current Charge


@<TRIPOS>ATOM
      1 C10          2.5100    21.7060   -32.0410 ca         1 QB0      -0.127000
      2 C13          4.2510    23.2970   -30.5070 ca         1 QB0      -0.006000
      3 C02          6.7180    20.0930   -29.6260 cs         1 QB0       0.400000
      4 C08          4.7770    22.3320   -31.3930 ca         1 QB0      -0.316500
      5 C09          3.9000    21.5370   -32.1620 ca         1 QB0      -0.006000
      6 C11          1.9890    22.6660   -31.1570 ca         1 QB0      -0.045000
      7 C12          2.8590    23.4590   -30.3920 ca         1 QB0      -0.127000
      8 N04          6.8710    20.5830   -30.8880 ns         1 QB0      -0.495300
      9 O06          6.8800    21.9560   -32.9780 o          1 QB0      -0.517500
     10 O07          7.2470    23.0880   -30.7130 o          1 QB0      -0.517500
     11 S01          7.1150    18.5200   -29.2380 s          1 QB0      -0.478400
     12 S03          6.0410    21.2220   -28.4050 sh         1 QB0      -0.199400
     13 S05          6.5600    22.1000   -31.5530 sy         1 QB0       1.187300
     14 H1           1.8360    21.0920   -32.6340 ha         1 QB0       0.125000
     15 H2           4.9100    23.9210   -29.9040 ha         1 QB0       0.137500
     16 H3           4.2900    20.7880   -32.8520 ha         1 QB0       0.137500
     17 H4           0.9120    22.7940   -31.0660 ha         1 QB0       0.121000
     18 H5           2.4550    24.2020   -29.7080 ha         1 QB0       0.125000
     19 H6           7.2270    19.9690   -31.6030 hn         1 QB0       0.355500
     20 H7           6.0900    20.2950   -27.4230 hs         1 QB0       0.246800
@<TRIPOS>BOND
     1     1     5 ar  
     2     1     6 ar  
     3     1    14 1   
     4     2     4 ar  
     5     2     7 ar  
     6     2    15 1   
     7     3     8 1   
     8     3    11 2   
     9     3    12 1   
    10     4     5 ar  
    11     4    13 1   
    12     5    16 1   
    13     6     7 ar  
    14     6    17 1   
    15     7    18 1   
    16     8    13 1   
    17     8    19 1   
    18     9    13 2   
    19    10    13 2   
    20    12    20 1   
@<TRIPOS>SUBSTRUCTURE
     1 QB0         1 TEMP              0 ****  ****    0 ROOT
