@<TRIPOS>MOLECULE
QB0
   20    20     1     0     0
SMALL
abcg2


@<TRIPOS>ATOM
      1 C10          2.5520    21.7410   -32.1480 ca         1 QB0      -0.127000
      2 C13          4.2270    23.2020   -30.4530 ca         1 QB0      -0.006000
      3 C02          6.7160    20.1520   -29.5730 cs         1 QB0       0.400000
      4 C08          4.7470    22.3200   -31.3950 ca         1 QB0      -0.316500
      5 C09          3.9260    21.5840   -32.2470 ca         1 QB0      -0.006000
      6 C11          2.0150    22.6210   -31.2110 ca         1 QB0      -0.045000
      7 C12          2.8480    23.3500   -30.3680 ca         1 QB0      -0.127000
      8 N04          6.8020    20.5890   -30.8640 ns         1 QB0      -0.495300
      9 O06          6.8640    21.9550   -32.9000 o          1 QB0      -0.517500
     10 O07          7.1440    23.0870   -30.6890 o          1 QB0      -0.517500
     11 S01          6.7850    18.5310   -29.2440 s          1 QB0      -0.478400
     12 S03          6.5580    21.3930   -28.3410 sh         1 QB0      -0.199400
     13 S05          6.4910    22.1150   -31.5220 sy         1 QB0       1.187300
     14 H1           1.9000    21.1790   -32.8040 ha         1 QB0       0.125000
     15 H2           4.8860    23.7630   -29.8080 ha         1 QB0       0.137500
     16 H3           4.3550    20.9070   -32.9740 ha         1 QB0       0.137500
     17 H4           0.9410    22.7400   -31.1400 ha         1 QB0       0.121000
     18 H5           2.4270    24.0340   -29.6440 ha         1 QB0       0.125000
     19 H6           6.8580    19.8590   -31.5670 hn         1 QB0       0.355500
     20 H7           6.3950    20.5000   -27.3520 hs         1 QB0       0.246800
@<TRIPOS>BOND
     1     1     5 ar  
     2     1     6 ar  
     3     1    14 1   
     4     2     4 ar  
     5     2     7 ar  
     6     2    15 1   
     7     3     8 1   
     8     3    11 2   
     9     3    12 1   
    10     4     5 ar  
    11     4    13 1   
    12     5    16 1   
    13     6     7 ar  
    14     6    17 1   
    15     7    18 1   
    16     8    13 1   
    17     8    19 1   
    18     9    13 2   
    19    10    13 2   
    20    12    20 1   
@<TRIPOS>SUBSTRUCTURE
     1 QB0         1 TEMP              0 ****  ****    0 ROOT
