@<TRIPOS>MOLECULE
QB1
   67    70     1     0     0
SMALL
abcg2


@<TRIPOS>ATOM
      1 O7          14.1840     9.8070    40.6620 o          1 QB1      -0.746000
      2 C23         14.3220     9.5440    41.8770 c          1 QB1       0.725000
      3 O8          15.2960     8.9850    42.4140 o          1 QB1      -0.746000
      4 C22         13.1650     9.9460    42.8100 c3         1 QB1      -0.202400
      5 C21         12.0380    10.6680    42.0930 c3         1 QB1      -0.131400
      6 C20         11.4090     9.8250    41.0120 c          1 QB1       0.628300
      7 O6          11.1970     8.6390    41.1810 o          1 QB1      -0.513100
      8 C19         10.9680    10.4690    39.7640 cc         1 QB1      -0.116600
      9 S1          11.2550    12.1560    39.4280 ss         1 QB1       0.012400
     10 C24         10.3180     9.8500    38.7410 cd         1 QB1      -0.096200
     11 C25         10.0350    10.7200    37.6510 ca         1 QB1      -0.052800
     12 C18         10.5050    12.0180    37.8800 ca         1 QB1      -0.170000
     13 C17         10.3670    13.0220    36.9240 ca         1 QB1      -0.117000
     14 C26          9.3820    10.4250    36.4440 ca         1 QB1      -0.112000
     15 C27          9.2420    11.4100    35.4920 ca         1 QB1       0.086100
     16 O9           8.6540    11.2390    34.2930 os         1 QB1      -0.353100
     17 C28          8.1440     9.9590    33.9840 c3         1 QB1       0.137900
     18 C            9.7620    12.7150    35.7250 ca         1 QB1       0.087100
     19 O            9.6000    13.6100    34.7250 os         1 QB1      -0.358100
     20 C1          10.6950    14.4480    34.3620 c3         1 QB1       0.171600
     21 C2          11.5010    13.8630    33.2120 c3         1 QB1      -0.097400
     22 C3          12.0400    12.4700    33.4680 c3         1 QB1       0.162600
     23 O1          12.8420    12.4980    34.6360 os         1 QB1      -0.347100
     24 C4          12.9870    11.3750    35.3640 ca         1 QB1       0.093100
     25 C15         13.6110    11.5610    36.6340 ca         1 QB1       0.101100
     26 O5          13.9690    12.8240    36.9090 os         1 QB1      -0.346100
     27 C16         14.6980    13.0690    38.0950 c3         1 QB1       0.143900
     28 C14         13.8000    10.4980    37.4910 ca         1 QB1      -0.123000
     29 C13         13.3440     9.2400    37.0990 ca         1 QB1      -0.169000
     30 C6          12.7370     9.0370    35.8540 ca         1 QB1      -0.094800
     31 C5          12.5800    10.1230    34.9750 ca         1 QB1      -0.143000
     32 S           13.3990     7.7840    38.0310 ss         1 QB1       0.263400
     33 C8          12.5790     6.9100    36.7660 cc         1 QB1      -0.172600
     34 C7          12.3030     7.6950    35.6860 cd         1 QB1      -0.123200
     35 C9          12.2380     5.5160    37.0200 c          1 QB1       0.624300
     36 O2          12.6190     4.9750    38.0440 o          1 QB1      -0.552100
     37 C10         11.3640     4.7950    36.0240 c3         1 QB1      -0.146400
     38 C11          9.9040     4.7620    36.5080 c3         1 QB1      -0.196400
     39 C12          9.3540     6.1880    36.7000 c          1 QB1       0.712000
     40 O3           9.0250     6.7990    35.6620 o          1 QB1      -0.739500
     41 O4           9.3250     6.6220    37.8690 o          1 QB1      -0.739500
     42 H20         12.7860     9.0510    43.3120 hc         1 QB1       0.024700
     43 H21         13.5530    10.5840    43.6090 hc         1 QB1       0.024700
     44 H19         12.3950    11.6210    41.7000 hc         1 QB1       0.026700
     45 H18         11.2370    10.9160    42.8000 hc         1 QB1       0.026700
     46 H23         10.0540     8.8000    38.7420 ha         1 QB1       0.274000
     47 H17         10.7400    14.0190    37.1180 ha         1 QB1       0.111000
     48 H24          9.0330     9.4140    36.2700 ha         1 QB1       0.181000
     49 H25          7.7360    10.0230    32.9790 h1         1 QB1       0.044700
     50 H26          8.9210     9.1900    34.0050 h1         1 QB1       0.044700
     51 H27          7.3460     9.6610    34.6710 h1         1 QB1       0.044700
     52 H           11.3430    14.6500    35.2170 h1         1 QB1       0.043200
     53 H1          10.2640    15.4020    34.0560 h1         1 QB1       0.043200
     54 H3          12.3170    14.5570    32.9920 hc         1 QB1       0.038200
     55 H2          10.8860    13.8160    32.3100 hc         1 QB1       0.038200
     56 H5          11.2090    11.7700    33.5770 h1         1 QB1       0.039200
     57 H4          12.6320    12.1290    32.6120 h1         1 QB1       0.039200
     58 H14         14.9050    14.1360    38.1140 h1         1 QB1       0.038367
     59 H15         14.1280    12.8030    38.9880 h1         1 QB1       0.038367
     60 H16         15.6450    12.5220    38.1060 h1         1 QB1       0.038367
     61 H13         14.2450    10.6220    38.4680 ha         1 QB1       0.182000
     62 H6          12.1220     9.9510    34.0100 ha         1 QB1       0.107000
     63 H7          11.7880     7.3450    34.8020 ha         1 QB1       0.201000
     64 H9          11.7360     3.7740    35.9210 hc         1 QB1       0.030700
     65 H8          11.4120     5.2570    35.0380 hc         1 QB1       0.030700
     66 H11          9.3190     4.2220    35.7600 hc         1 QB1       0.022700
     67 H10          9.8530     4.1950    37.4400 hc         1 QB1       0.022700
@<TRIPOS>BOND
     1     1     2 1   
     2     2     3 1   
     3     2     4 1   
     4     4     5 1   
     5     4    42 1   
     6     4    43 1   
     7     5     6 1   
     8     5    44 1   
     9     5    45 1   
    10     6     7 2   
    11     6     8 1   
    12     8     9 1   
    13     8    10 2   
    14     9    12 1   
    15    10    11 1   
    16    10    46 1   
    17    11    12 ar  
    18    11    14 ar  
    19    12    13 ar  
    20    13    18 ar  
    21    13    47 1   
    22    14    15 ar  
    23    14    48 1   
    24    15    16 1   
    25    15    18 ar  
    26    16    17 1   
    27    17    49 1   
    28    17    50 1   
    29    17    51 1   
    30    18    19 1   
    31    19    20 1   
    32    20    21 1   
    33    20    52 1   
    34    20    53 1   
    35    21    22 1   
    36    21    54 1   
    37    21    55 1   
    38    22    23 1   
    39    22    56 1   
    40    22    57 1   
    41    23    24 1   
    42    24    25 ar  
    43    24    31 ar  
    44    25    26 1   
    45    25    28 ar  
    46    26    27 1   
    47    27    58 1   
    48    27    59 1   
    49    27    60 1   
    50    28    29 ar  
    51    28    61 1   
    52    29    30 ar  
    53    29    32 1   
    54    30    31 ar  
    55    30    34 1   
    56    31    62 1   
    57    32    33 1   
    58    33    34 2   
    59    33    35 1   
    60    34    63 1   
    61    35    36 2   
    62    35    37 1   
    63    37    38 1   
    64    37    64 1   
    65    37    65 1   
    66    38    39 1   
    67    38    66 1   
    68    38    67 1   
    69    39    40 1   
    70    39    41 1   
@<TRIPOS>SUBSTRUCTURE
     1 QB1         1 TEMP              0 ****  ****    0 ROOT
