@<TRIPOS>MOLECULE
QB1
   67    70     1     0     0
SMALL
No Charge or Current Charge


@<TRIPOS>ATOM
      1 O7          14.7810    11.6280    41.6600 o          1 QB1      -0.746000
      2 C23         14.2960    10.5080    41.6830 c          1 QB1       0.725000
      3 O8          14.5310     9.6470    40.8530 o          1 QB1      -0.746000
      4 C22         13.2900    10.1720    42.7960 c3         1 QB1      -0.202400
      5 C21         11.8440    10.5760    42.3880 c3         1 QB1      -0.131400
      6 C20         11.2810     9.7510    41.2040 c          1 QB1       0.628300
      7 O6          10.9980     8.5690    41.3700 o          1 QB1      -0.513100
      8 C19         11.0270    10.4260    39.9010 cc         1 QB1      -0.116600
      9 S1          11.3760    12.1450    39.5420 ss         1 QB1       0.012400
     10 C24         10.4010     9.8080    38.8310 cd         1 QB1      -0.096200
     11 C25         10.1280    10.6750    37.7110 ca         1 QB1      -0.052800
     12 C18         10.5830    11.9520    37.9520 ca         1 QB1      -0.170000
     13 C17         10.4270    12.9640    36.9940 ca         1 QB1      -0.117000
     14 C26          9.4720    10.3400    36.5180 ca         1 QB1      -0.112000
     15 C27          9.2850    11.3460    35.5370 ca         1 QB1       0.086100
     16 O9           8.6500    11.0800    34.3340 os         1 QB1      -0.353100
     17 C28          8.2230     9.7560    33.9660 c3         1 QB1       0.137900
     18 C            9.7830    12.6580    35.7710 ca         1 QB1       0.087100
     19 O            9.6220    13.6330    34.7990 os         1 QB1      -0.358100
     20 C1          10.7130    14.4980    34.4100 c3         1 QB1       0.171600
     21 C2          11.4540    13.8850    33.1940 c3         1 QB1      -0.097400
     22 C3          11.9800    12.4510    33.4080 c3         1 QB1       0.162600
     23 O1          12.8540    12.4650    34.5510 os         1 QB1      -0.347100
     24 C4          13.0620    11.3510    35.3490 ca         1 QB1       0.093100
     25 C15         13.7900    11.5160    36.5600 ca         1 QB1       0.101100
     26 O5          14.2980    12.7710    36.8650 os         1 QB1      -0.346100
     27 C16         14.9780    13.0470    38.1020 c3         1 QB1       0.143900
     28 C14         13.9640    10.4140    37.4330 ca         1 QB1      -0.123000
     29 C13         13.4020     9.1760    37.0880 ca         1 QB1      -0.169000
     30 C6          12.7050     9.0200    35.9130 ca         1 QB1      -0.094800
     31 C5          12.5300    10.0800    35.0150 ca         1 QB1      -0.143000
     32 S           13.4760     7.6940    38.0870 ss         1 QB1       0.263400
     33 C8          12.4990     6.8470    36.8580 cc         1 QB1      -0.172600
     34 C7          12.1880     7.6790    35.7910 cd         1 QB1      -0.123200
     35 C9          12.0920     5.4330    37.0480 c          1 QB1       0.624300
     36 O2          12.4260     4.8100    38.0500 o          1 QB1      -0.552100
     37 C10         11.2490     4.7240    35.9620 c3         1 QB1      -0.146400
     38 C11          9.7350     4.6740    36.3200 c3         1 QB1      -0.196400
     39 C12          9.1220     6.0860    36.3670 c          1 QB1       0.712000
     40 O3           8.7030     6.5640    35.3250 o          1 QB1      -0.739500
     41 O4           9.1340     6.6780    37.4330 o          1 QB1      -0.739500
     42 H20         13.2660     9.0920    42.9850 hc         1 QB1       0.024700
     43 H21         13.5100    10.7670    43.6910 hc         1 QB1       0.024700
     44 H19         11.8350    11.6480    42.1670 hc         1 QB1       0.026700
     45 H18         11.1990    10.3970    43.2560 hc         1 QB1       0.026700
     46 H23         10.0930     8.7640    38.8510 ha         1 QB1       0.274000
     47 H17         10.7920    13.9650    37.2030 ha         1 QB1       0.111000
     48 H24          9.1240     9.3220    36.3720 ha         1 QB1       0.181000
     49 H25          7.7620     9.7680    32.9710 h1         1 QB1       0.044700
     50 H26          9.0770     9.0670    33.9360 h1         1 QB1       0.044700
     51 H27          7.4820     9.3710    34.6780 h1         1 QB1       0.044700
     52 H           11.4200    14.6660    35.2320 h1         1 QB1       0.043200
     53 H1          10.3200    15.4790    34.1120 h1         1 QB1       0.043200
     54 H3          12.2930    14.5370    32.9250 hc         1 QB1       0.038200
     55 H2          10.7750    13.8820    32.3330 hc         1 QB1       0.038200
     56 H5          11.1160    11.7960    33.5660 h1         1 QB1       0.039200
     57 H4          12.5130    12.1010    32.5150 h1         1 QB1       0.039200
     58 H14         15.2820    14.1000    38.1420 h1         1 QB1       0.038367
     59 H15         14.3220    12.8500    38.9600 h1         1 QB1       0.038367
     60 H16         15.8800    12.4290    38.1990 h1         1 QB1       0.038367
     61 H13         14.5050    10.5080    38.3690 ha         1 QB1       0.182000
     62 H6          11.9710     9.9090    34.1010 ha         1 QB1       0.107000
     63 H7          11.5800     7.3780    34.9430 ha         1 QB1       0.201000
     64 H9          11.6020     3.6900    35.8690 hc         1 QB1       0.030700
     65 H8          11.3510     5.2240    34.9940 hc         1 QB1       0.030700
     66 H11          9.2700     4.0900    35.5170 hc         1 QB1       0.022700
     67 H10          9.6700     4.1920    37.3030 hc         1 QB1       0.022700
@<TRIPOS>BOND
     1     1     2 1   
     2     2     3 1   
     3     2     4 1   
     4     4     5 1   
     5     4    42 1   
     6     4    43 1   
     7     5     6 1   
     8     5    44 1   
     9     5    45 1   
    10     6     7 2   
    11     6     8 1   
    12     8     9 1   
    13     8    10 2   
    14     9    12 1   
    15    10    11 1   
    16    10    46 1   
    17    11    12 ar  
    18    11    14 ar  
    19    12    13 ar  
    20    13    18 ar  
    21    13    47 1   
    22    14    15 ar  
    23    14    48 1   
    24    15    16 1   
    25    15    18 ar  
    26    16    17 1   
    27    17    49 1   
    28    17    50 1   
    29    17    51 1   
    30    18    19 1   
    31    19    20 1   
    32    20    21 1   
    33    20    52 1   
    34    20    53 1   
    35    21    22 1   
    36    21    54 1   
    37    21    55 1   
    38    22    23 1   
    39    22    56 1   
    40    22    57 1   
    41    23    24 1   
    42    24    25 ar  
    43    24    31 ar  
    44    25    26 1   
    45    25    28 ar  
    46    26    27 1   
    47    27    58 1   
    48    27    59 1   
    49    27    60 1   
    50    28    29 ar  
    51    28    61 1   
    52    29    30 ar  
    53    29    32 1   
    54    30    31 ar  
    55    30    34 1   
    56    31    62 1   
    57    32    33 1   
    58    33    34 2   
    59    33    35 1   
    60    34    63 1   
    61    35    36 2   
    62    35    37 1   
    63    37    38 1   
    64    37    64 1   
    65    37    65 1   
    66    38    39 1   
    67    38    66 1   
    68    38    67 1   
    69    39    40 1   
    70    39    41 1   
@<TRIPOS>SUBSTRUCTURE
     1 QB1         1 TEMP              0 ****  ****    0 ROOT
