@<TRIPOS>MOLECULE
QB2
   54    57     1     0     0
SMALL
No Charge or Current Charge


@<TRIPOS>ATOM
      1 C13         -7.4140   -23.7870     8.4210 c6         1 QB2       0.131300
      2 C18         -7.3740   -20.6060    15.6800 ca         1 QB2       0.156500
      3 C17         -7.7910   -21.5180    14.6970 ca         1 QB2      -0.133500
      4 C16         -6.9130   -21.9200    13.6630 ca         1 QB2      -0.036500
      5 C15         -7.3620   -22.8930    12.6530 cc         1 QB2       0.219500
      6 C19         -6.0700   -20.0840    15.6570 ca         1 QB2       0.072000
      7 C20         -5.1850   -20.4860    14.6440 ca         1 QB2       0.156500
      8 C21         -5.5970   -21.3970    13.6570 ca         1 QB2      -0.133500
      9 C11         -4.6280   -27.2340    12.7430 c          1 QB2       0.726000
     10 C12         -7.1770   -24.7790     9.6060 c6         1 QB2       0.039300
     11 F2          -3.9230   -19.9990    14.6110 f          1 QB2      -0.163500
     12 F1          -5.6690   -19.2050    16.6080 f          1 QB2      -0.154000
     13 C14         -6.6520   -23.1670    11.5260 cd         1 QB2      -0.164000
     14 N1          -8.5250   -23.6040    12.7060 nc         1 QB2      -0.354000
     15 N2          -8.5840   -24.3520    11.6310 nd         1 QB2      -0.178800
     16 N           -7.4460   -24.1060    10.8990 na         1 QB2       0.142800
     17 O5          -6.5170   -22.6580     8.5260 oh         1 QB2      -0.710000
     18 C1          -7.2000   -24.5580     7.0800 c6         1 QB2       0.142300
     19 C           -7.4190   -23.6690     5.8120 c3         1 QB2       0.170600
     20 O           -7.2710   -24.3970     4.5780 oh         1 QB2      -0.707000
     21 C9          -5.7560   -25.4420     9.5040 c6         1 QB2       0.155300
     22 O2          -5.5110   -26.4770    10.5000 os         1 QB2      -0.409000
     23 C10         -5.2560   -26.0930    11.8780 c3         1 QB2       0.002600
     24 O4          -4.3880   -26.9850    13.9180 o          1 QB2      -0.711000
     25 O3          -4.3920   -28.3230    12.2330 o          1 QB2      -0.711000
     26 C2          -5.5610   -26.0680     8.0810 c6         1 QB2       0.310300
     27 O1          -5.8540   -25.1010     7.0410 os         1 QB2      -0.422000
     28 S           -6.5660   -27.6160     7.8090 ss         1 QB2      -0.196000
     29 C3          -6.2930   -28.0320     6.0830 ca         1 QB2      -0.110000
     30 C8          -7.3220   -28.6900     5.3830 ca         1 QB2      -0.042000
     31 C7          -7.1570   -29.0340     4.0300 ca         1 QB2       0.103000
     32 Cl1         -8.4750   -29.8520     3.1870 cl         1 QB2      -0.194000
     33 C6          -5.9510   -28.7240     3.3690 ca         1 QB2       0.129000
     34 Cl          -5.7070   -29.1410     1.6720 cl         1 QB2      -0.193000
     35 C5          -4.9180   -28.0770     4.0680 ca         1 QB2      -0.118000
     36 C4          -5.0840   -27.7320     5.4210 ca         1 QB2      -0.049000
     37 H4          -8.4580   -23.4420     8.4640 h1         1 QB2       0.045700
     38 H17         -4.8800   -21.6930    12.8970 ha         1 QB2       0.149000
     39 H3          -7.9170   -25.5860     9.5120 h1         1 QB2       0.115700
     40 H15         -5.7170   -22.7960    11.1300 h4         1 QB2       0.179000
     41 H14         -6.9160   -21.9100     8.0260 ho         1 QB2       0.502000
     42 H           -7.9280   -25.3800     7.0200 h1         1 QB2       0.071700
     43 H7          -6.7020   -22.8380     5.8390 h1         1 QB2       0.024700
     44 H6          -8.4260   -23.2350     5.8690 h1         1 QB2       0.024700
     45 H5          -7.3370   -23.7390     3.8470 ho         1 QB2       0.502000
     46 H2          -4.9900   -24.6630     9.6250 h1         1 QB2       0.061700
     47 H11         -4.5660   -25.2400    11.9110 h1         1 QB2       0.012200
     48 H12         -6.1880   -25.7990    12.3730 h1         1 QB2       0.012200
     49 H1          -4.5100   -26.3770     7.9970 h2         1 QB2       0.120700
     50 H10         -8.2540   -28.9310     5.8870 ha         1 QB2       0.144000
     51 H9          -3.9860   -27.8420     3.5590 ha         1 QB2       0.129000
     52 H8          -4.2680   -27.2370     5.9410 ha         1 QB2       0.153000
     53 F           -8.2390   -20.2360    16.6530 f          1 QB2      -0.163500
     54 H16         -8.8050   -21.9080    14.7400 ha         1 QB2       0.149000
@<TRIPOS>BOND
     1     1    10 1   
     2     1    17 1   
     3     1    18 1   
     4     1    37 1   
     5     2     3 ar  
     6     2     6 ar  
     7     2    53 1   
     8     3     4 ar  
     9     3    54 1   
    10     4     5 1   
    11     4     8 ar  
    12     5    13 2   
    13     5    14 1   
    14     6     7 ar  
    15     6    12 1   
    16     7     8 ar  
    17     7    11 1   
    18     8    38 1   
    19     9    23 1   
    20     9    24 1   
    21     9    25 1   
    22    10    16 1   
    23    10    21 1   
    24    10    39 1   
    25    13    16 1   
    26    13    40 1   
    27    14    15 2   
    28    15    16 1   
    29    17    41 1   
    30    18    19 1   
    31    18    27 1   
    32    18    42 1   
    33    19    20 1   
    34    19    43 1   
    35    19    44 1   
    36    20    45 1   
    37    21    22 1   
    38    21    26 1   
    39    21    46 1   
    40    22    23 1   
    41    23    47 1   
    42    23    48 1   
    43    26    27 1   
    44    26    28 1   
    45    26    49 1   
    46    28    29 1   
    47    29    30 ar  
    48    29    36 ar  
    49    30    31 ar  
    50    30    50 1   
    51    31    32 1   
    52    31    33 ar  
    53    33    34 1   
    54    33    35 ar  
    55    35    36 ar  
    56    35    51 1   
    57    36    52 1   
@<TRIPOS>SUBSTRUCTURE
     1 QB2         1 TEMP              0 ****  ****    0 ROOT
