@<TRIPOS>MOLECULE
QB2
   54    57     1     0     0
SMALL
abcg2


@<TRIPOS>ATOM
      1 C13         -7.4500   -23.7040     8.3910 c6         1 QB2       0.131300
      2 C18         -7.1840   -21.1630    15.9350 ca         1 QB2       0.156500
      3 C17         -7.4400   -22.0950    14.9540 ca         1 QB2      -0.133500
      4 C16         -6.9080   -21.9120    13.6780 ca         1 QB2      -0.036500
      5 C15         -7.2060   -22.8780    12.6260 cc         1 QB2       0.219500
      6 C19         -6.4090   -20.0450    15.6840 ca         1 QB2       0.072000
      7 C20         -5.8810   -19.8780    14.4160 ca         1 QB2       0.156500
      8 C21         -6.1200   -20.7930    13.4130 ca         1 QB2      -0.133500
      9 C11         -4.2060   -27.3230    12.0520 c          1 QB2       0.726000
     10 C12         -7.2070   -24.6820     9.5390 c6         1 QB2       0.039300
     11 F2          -5.1430   -18.7940    14.1740 f          1 QB2      -0.163500
     12 F1          -6.1830   -19.1490    16.6420 f          1 QB2      -0.154000
     13 C14         -6.6580   -23.0230    11.3740 cd         1 QB2      -0.164000
     14 N1          -8.1660   -23.8210    12.7660 nc         1 QB2      -0.354000
     15 N2          -8.2390   -24.5170    11.6920 nd         1 QB2      -0.178800
     16 N           -7.3390   -24.0490    10.8360 na         1 QB2       0.142800
     17 O5          -6.5050   -22.6640     8.4470 oh         1 QB2      -0.710000
     18 C1          -7.3380   -24.4860     7.0850 c6         1 QB2       0.142300
     19 C           -7.5140   -23.5920     5.8770 c3         1 QB2       0.170600
     20 O           -7.6550   -24.3950     4.7310 oh         1 QB2      -0.707000
     21 C9          -5.8560   -25.3900     9.3950 c6         1 QB2       0.155300
     22 O2          -5.6960   -26.4030    10.3320 os         1 QB2      -0.409000
     23 C10         -4.9610   -26.0960    11.5030 c3         1 QB2       0.002600
     24 O4          -3.5670   -27.0820    13.0950 o          1 QB2      -0.711000
     25 O3          -4.2940   -28.3960    11.4360 o          1 QB2      -0.711000
     26 C2          -5.7510   -26.0110     7.9930 c6         1 QB2       0.310300
     27 O1          -6.0710   -25.1150     6.9870 os         1 QB2      -0.422000
     28 S           -6.7830   -27.5510     7.9510 ss         1 QB2      -0.196000
     29 C3          -6.3630   -28.0990     6.3220 ca         1 QB2      -0.110000
     30 C8          -7.1270   -27.7020     5.2330 ca         1 QB2      -0.042000
     31 C7          -6.7990   -28.1400     3.9590 ca         1 QB2       0.103000
     32 CL1         -7.7540   -27.6250     2.6220 cl         1 QB2      -0.194000
     33 C6          -5.7060   -28.9790     3.7690 ca         1 QB2       0.129000
     34 CL          -5.2810   -29.5200     2.1930 cl         1 QB2      -0.193000
     35 C5          -4.9480   -29.3830     4.8590 ca         1 QB2      -0.118000
     36 C4          -5.2760   -28.9460     6.1310 ca         1 QB2      -0.049000
     37 H4          -8.4740   -23.3230     8.4740 h1         1 QB2       0.045700
     38 H17         -5.7020   -20.6130    12.4310 ha         1 QB2       0.149000
     39 H3          -8.0030   -25.4310     9.5160 h1         1 QB2       0.115700
     40 H15         -5.8640   -22.5060    10.8660 h4         1 QB2       0.179000
     41 H14         -6.9520   -21.8210     8.3280 ho         1 QB2       0.502000
     42 H           -8.1370   -25.2420     7.0800 h1         1 QB2       0.071700
     43 H7          -6.6590   -22.9120     5.7950 h1         1 QB2       0.024700
     44 H6          -8.4040   -22.9720     6.0480 h1         1 QB2       0.024700
     45 H5          -7.7010   -23.8200     3.9620 ho         1 QB2       0.502000
     46 H2          -5.0480   -24.6490     9.4720 h1         1 QB2       0.061700
     47 H11         -4.2290   -25.3040    11.2970 h1         1 QB2       0.012200
     48 H12         -5.6220   -25.7120    12.2900 h1         1 QB2       0.012200
     49 H1          -4.7210   -26.3230     7.8130 h2         1 QB2       0.120700
     50 H10         -7.9750   -27.0470     5.3690 ha         1 QB2       0.144000
     51 H9          -4.1030   -30.0410     4.7090 ha         1 QB2       0.129000
     52 H8          -4.6800   -29.2650     6.9760 ha         1 QB2       0.153000
     53 F           -7.6860   -21.3200    17.1600 f          1 QB2      -0.163500
     54 H16         -8.0530   -22.9550    15.1860 ha         1 QB2       0.149000
@<TRIPOS>BOND
     1     1    10 1   
     2     1    17 1   
     3     1    18 1   
     4     1    37 1   
     5     2     3 ar  
     6     2     6 ar  
     7     2    53 1   
     8     3     4 ar  
     9     3    54 1   
    10     4     5 1   
    11     4     8 ar  
    12     5    13 2   
    13     5    14 1   
    14     6     7 ar  
    15     6    12 1   
    16     7     8 ar  
    17     7    11 1   
    18     8    38 1   
    19     9    23 1   
    20     9    24 1   
    21     9    25 1   
    22    10    16 1   
    23    10    21 1   
    24    10    39 1   
    25    13    16 1   
    26    13    40 1   
    27    14    15 2   
    28    15    16 1   
    29    17    41 1   
    30    18    19 1   
    31    18    27 1   
    32    18    42 1   
    33    19    20 1   
    34    19    43 1   
    35    19    44 1   
    36    20    45 1   
    37    21    22 1   
    38    21    26 1   
    39    21    46 1   
    40    22    23 1   
    41    23    47 1   
    42    23    48 1   
    43    26    27 1   
    44    26    28 1   
    45    26    49 1   
    46    28    29 1   
    47    29    30 ar  
    48    29    36 ar  
    49    30    31 ar  
    50    30    50 1   
    51    31    32 1   
    52    31    33 ar  
    53    33    34 1   
    54    33    35 ar  
    55    35    36 ar  
    56    35    51 1   
    57    36    52 1   
@<TRIPOS>SUBSTRUCTURE
     1 QB2         1 TEMP              0 ****  ****    0 ROOT
