@<TRIPOS>MOLECULE
QB3
   43    45     1     0     0
SMALL
abcg2


@<TRIPOS>ATOM
      1 C13          0.4460    -5.8190   -12.8520 c6         1 QB3      -0.071400
      2 C15          6.8490    -7.4700   -12.3130 ca         1 QB3       0.059000
      3 C17          8.9690    -6.6410   -12.2350 ca         1 QB3       0.156900
      4 C21          7.3450    -8.7850   -12.1480 ca         1 QB3      -0.145000
      5 C22          6.4600    -9.8860   -12.1120 ca         1 QB3      -0.133000
      6 C01          4.6120   -12.0050   -12.0680 c3         1 QB3       0.143900
      7 C03          5.1100    -9.6830   -12.2340 ca         1 QB3       0.108100
      8 C04          4.5980    -8.3490   -12.3950 ca         1 QB3       0.171100
      9 C06          2.6490    -6.9730   -12.6060 c3         1 QB3       0.164600
     10 C07          1.1450    -7.1610   -12.6240 c6         1 QB3      -0.065700
     11 C08          0.6220    -7.8000   -11.3350 c6         1 QB3      -0.071400
     12 C09         -0.8990    -7.8840   -11.3440 c6         1 QB3       0.165300
     13 C11         -2.9570    -6.6470   -11.4730 c3         1 QB3       0.152100
     14 C12         -1.0690    -5.9770   -12.8040 c6         1 QB3       0.165300
     15 C14          5.4570    -7.2760   -12.4340 ca         1 QB3      -0.193000
     16 C19          8.7520    -8.8910   -12.0280 ca         1 QB3       0.366300
     17 N10         -1.5060    -6.5700   -11.5430 n3         1 QB3      -0.719600
     18 N16          7.6890    -6.3920   -12.3550 nb         1 QB3      -0.190000
     19 N18          9.5530    -7.8490   -12.0700 nb         1 QB3      -0.291000
     20 O05          3.2610    -8.2680   -12.4970 os         1 QB3      -0.331100
     21 O20          9.2840   -10.1100   -11.8640 oh         1 QB3      -0.644300
     22 H131         0.7370    -5.3990   -13.8180 hc         1 QB3       0.052200
     23 H132         0.7560    -5.1100   -12.0780 hc         1 QB3       0.052200
     24 H171         9.6470    -5.7940   -12.2670 h5         1 QB3       0.049100
     25 H221         6.8630   -10.8790   -11.9870 ha         1 QB3       0.137000
     26 H012         3.7120   -12.6140   -12.0850 h1         1 QB3       0.044700
     27 H011         5.2690   -12.2900   -12.8930 h1         1 QB3       0.044700
     28 H013         5.1360   -12.1420   -11.1190 h1         1 QB3       0.044700
     29 H061         2.9520    -6.3600   -11.7510 h1         1 QB3       0.042700
     30 H062         2.9940    -6.4890   -13.5240 h1         1 QB3       0.042700
     31 H071         0.8990    -7.8220   -13.4630 hc         1 QB3       0.060700
     32 H082         1.0400    -8.8000   -11.2070 hc         1 QB3       0.052200
     33 H081         0.9450    -7.1970   -10.4800 hc         1 QB3       0.052200
     34 H091        -1.2580    -8.2880   -10.3950 h1         1 QB3       0.031950
     35 H092        -1.2220    -8.5840   -12.1370 h1         1 QB3       0.031950
     36 H111        -3.2600    -7.0560   -10.5080 h1         1 QB3       0.030700
     37 H112        -3.3860    -5.6490   -11.5780 h1         1 QB3       0.030700
     38 H113        -3.3820    -7.2870   -12.2650 h1         1 QB3       0.030700
     39 H122        -1.5510    -5.0020   -12.9100 h1         1 QB3       0.031950
     40 H121        -1.4000    -6.5960   -13.6590 h1         1 QB3       0.031950
     41 H141         5.0920    -6.2680   -12.5570 ha         1 QB3       0.142000
     42 H201        10.2480   -10.0160   -11.7940 ho         1 QB3       0.490000
     43 O02          4.1710   -10.6540   -12.2150 os         1 QB3      -0.326100
@<TRIPOS>BOND
     1     1    10 1   
     2     1    14 1   
     3     1    22 1   
     4     1    23 1   
     5     2     4 ar  
     6     2    15 ar  
     7     2    18 ar  
     8     3    18 ar  
     9     3    19 ar  
    10     3    24 1   
    11     4     5 ar  
    12     4    16 ar  
    13     5     7 ar  
    14     5    25 1   
    15     6    26 1   
    16     6    27 1   
    17     6    28 1   
    18     6    43 1   
    19     7     8 ar  
    20     7    43 1   
    21     8    15 ar  
    22     8    20 1   
    23     9    10 1   
    24     9    20 1   
    25     9    29 1   
    26     9    30 1   
    27    10    11 1   
    28    10    31 1   
    29    11    12 1   
    30    11    32 1   
    31    11    33 1   
    32    12    17 1   
    33    12    34 1   
    34    12    35 1   
    35    13    17 1   
    36    13    36 1   
    37    13    37 1   
    38    13    38 1   
    39    14    17 1   
    40    14    39 1   
    41    14    40 1   
    42    15    41 1   
    43    16    19 ar  
    44    16    21 1   
    45    21    42 1   
@<TRIPOS>SUBSTRUCTURE
     1 QB3         1 TEMP              0 ****  ****    0 ROOT
