@<TRIPOS>MOLECULE
QB3
   43    45     1     0     0
SMALL
No Charge or Current Charge


@<TRIPOS>ATOM
      1 C13          0.3880    -5.7540   -12.8310 c6         1 QB3      -0.071400
      2 C15          6.9160    -7.4780   -12.3050 ca         1 QB3       0.059000
      3 C17          9.0760    -6.6690   -12.2700 ca         1 QB3       0.156900
      4 C21          7.4280    -8.7900   -12.1760 ca         1 QB3      -0.145000
      5 C22          6.5520    -9.8960   -12.1280 ca         1 QB3      -0.133000
      6 C01          4.6920   -12.1290   -12.0320 c3         1 QB3       0.143900
      7 C03          5.1550    -9.7000   -12.2080 ca         1 QB3       0.108100
      8 C04          4.6410    -8.3880   -12.3380 ca         1 QB3       0.171100
      9 C06          2.6490    -6.9290   -12.5310 c3         1 QB3       0.164600
     10 C07          1.1060    -7.1070   -12.5800 c6         1 QB3      -0.065700
     11 C08          0.5410    -7.7550   -11.2860 c6         1 QB3      -0.071400
     12 C09         -1.0020    -7.8720   -11.3440 c6         1 QB3       0.165300
     13 C11         -3.1190    -6.6240   -11.5360 c3         1 QB3       0.152100
     14 C12         -1.1510    -5.9280   -12.8460 c6         1 QB3       0.165300
     15 C14          5.5270    -7.2880   -12.3850 ca         1 QB3      -0.193000
     16 C19          8.8330    -8.9340   -12.0990 ca         1 QB3       0.366300
     17 N10         -1.6430    -6.5500   -11.5860 n3         1 QB3      -0.719600
     18 N16          7.7530    -6.4200   -12.3520 nb         1 QB3      -0.190000
     19 N18          9.6600    -7.8780   -12.1460 nb         1 QB3      -0.291000
     20 O05          3.2680    -8.2220   -12.4140 os         1 QB3      -0.331100
     21 O20          9.4250   -10.1520   -11.9740 oh         1 QB3      -0.644300
     22 H131         0.7160    -5.3230   -13.7860 hc         1 QB3       0.052200
     23 H132         0.6630    -5.0320   -12.0500 hc         1 QB3       0.052200
     24 H171         9.7400    -5.8070   -12.3090 h5         1 QB3       0.049100
     25 H221         6.9660   -10.8950   -12.0280 ha         1 QB3       0.137000
     26 H012         3.8240   -12.7990   -12.0180 h1         1 QB3       0.044700
     27 H011         5.3320   -12.4210   -12.8750 h1         1 QB3       0.044700
     28 H013         5.2490   -12.2760   -11.0980 h1         1 QB3       0.044700
     29 H061         2.9100    -6.2940   -11.6750 h1         1 QB3       0.042700
     30 H062         2.9780    -6.4290   -13.4520 h1         1 QB3       0.042700
     31 H071         0.8960    -7.7720   -13.4290 hc         1 QB3       0.060700
     32 H082         0.9730    -8.7540   -11.1390 hc         1 QB3       0.052200
     33 H081         0.8280    -7.1580   -10.4100 hc         1 QB3       0.052200
     34 H091        -1.3580    -8.2980   -10.3940 h1         1 QB3       0.031950
     35 H092        -1.2790    -8.5800   -12.1400 h1         1 QB3       0.031950
     36 H111        -3.4550    -7.0290   -10.5720 h1         1 QB3       0.030700
     37 H112        -3.5620    -5.6260   -11.6560 h1         1 QB3       0.030700
     38 H113        -3.5070    -7.2710   -12.3350 h1         1 QB3       0.030700
     39 H122        -1.6150    -4.9410   -12.9890 h1         1 QB3       0.031950
     40 H121        -1.4330    -6.5470   -13.7110 h1         1 QB3       0.031950
     41 H141         5.1520    -6.2740   -12.4850 ha         1 QB3       0.142000
     42 H201        10.3910    -9.9830   -11.9430 ho         1 QB3       0.490000
     43 O02          4.2640   -10.7620   -12.1630 os         1 QB3      -0.326100
@<TRIPOS>BOND
     1     1    10 1   
     2     1    14 1   
     3     1    22 1   
     4     1    23 1   
     5     2     4 ar  
     6     2    15 ar  
     7     2    18 ar  
     8     3    18 ar  
     9     3    19 ar  
    10     3    24 1   
    11     4     5 ar  
    12     4    16 ar  
    13     5     7 ar  
    14     5    25 1   
    15     6    26 1   
    16     6    27 1   
    17     6    28 1   
    18     6    43 1   
    19     7     8 ar  
    20     7    43 1   
    21     8    15 ar  
    22     8    20 1   
    23     9    10 1   
    24     9    20 1   
    25     9    29 1   
    26     9    30 1   
    27    10    11 1   
    28    10    31 1   
    29    11    12 1   
    30    11    32 1   
    31    11    33 1   
    32    12    17 1   
    33    12    34 1   
    34    12    35 1   
    35    13    17 1   
    36    13    36 1   
    37    13    37 1   
    38    13    38 1   
    39    14    17 1   
    40    14    39 1   
    41    14    40 1   
    42    15    41 1   
    43    16    19 ar  
    44    16    21 1   
    45    21    42 1   
@<TRIPOS>SUBSTRUCTURE
     1 QB3         1 TEMP              0 ****  ****    0 ROOT
