@<TRIPOS>MOLECULE
QB5
   50    52     1     0     0
SMALL
No Charge or Current Charge


@<TRIPOS>ATOM
      1 C10         43.0980    16.2650     8.7720 ca         1 QB5      -0.135000
      2 C15         42.2610    18.7760     9.6960 ca         1 QB5      -0.078000
      3 C17         41.4650    18.0670     8.7690 ca         1 QB5       0.053100
      4 C22         39.1480    19.4230    10.2730 ca         1 QB5      -0.135300
      5 C01         39.9740    14.6160     5.7770 c3         1 QB5      -0.182100
      6 C05         41.1430    14.9160     6.7110 c          1 QB5       0.609100
      7 O06         42.0670    14.1230     6.8490 o          1 QB5      -0.586100
      8 C09         41.8850    16.8060     8.2970 ca         1 QB5      -0.011000
      9 C12         43.8830    16.9690     9.7000 ca         1 QB5      -0.077000
     10 C14         43.4770    18.2380    10.1750 ca         1 QB5      -0.151600
     11 O18         40.2670    18.5730     8.2850 os         1 QB5      -0.372100
     12 C19         39.6080    19.7280     8.8470 c3         1 QB5       0.209900
     13 C23         38.4240    18.2460    10.5530 ca         1 QB5      -0.083000
     14 C25         38.0020    17.9660    11.8640 ca         1 QB5      -0.112500
     15 C27         38.2970    18.8630    12.9050 ca         1 QB5      -0.106000
     16 C29         39.0130    20.0400    12.6320 ca         1 QB5      -0.112500
     17 C31         39.4360    20.3210    11.3210 ca         1 QB5      -0.083000
     18 C33         44.2990    19.0300    11.1740 c          1 QB5       0.619700
     19 O34         43.9470    20.1310    11.5800 o          1 QB5      -0.610100
     20 N35         45.4740    18.4520    11.6030 ns         1 QB5      -0.482900
     21 C37         46.3740    19.0240    12.6080 c3         1 QB5       0.105000
     22 C40         45.8490    18.8330    14.0460 c3         1 QB5      -0.127700
     23 C43         45.6680    17.3940    14.4480 cc         1 QB5       0.239300
     24 C44         46.4300    16.3140    14.0930 cd         1 QB5      -0.231000
     25 N46         45.8390    15.2350    14.7310 na         1 QB5      -0.301500
     26 C48         44.7550    15.7120    15.4420 cd         1 QB5       0.386400
     27 N50         44.6470    17.0240    15.2760 nc         1 QB5      -0.673000
     28 H1          43.4540    15.2960     8.4370 ha         1 QB5       0.150000
     29 H2          41.9490    19.7520    10.0510 ha         1 QB5       0.140000
     30 H3          40.0710    13.6470     5.2760 hc         1 QB5       0.063700
     31 H4          39.0370    14.6880     6.3430 hc         1 QB5       0.063700
     32 H5          39.8730    15.4360     5.0570 hc         1 QB5       0.063700
     33 H6          40.2140    16.6650     7.1260 hn         1 QB5       0.167000
     34 H7          44.8090    16.5100    10.0370 ha         1 QB5       0.114000
     35 H8          40.2700    20.6040     8.8300 h1         1 QB5       0.060200
     36 H9          38.7260    19.9810     8.2440 h1         1 QB5       0.060200
     37 H10         38.1910    17.5460     9.7530 ha         1 QB5       0.116500
     38 H11         37.4460    17.0550    12.0730 ha         1 QB5       0.115000
     39 H12         37.9710    18.6460    13.9190 ha         1 QB5       0.108000
     40 H13         39.2410    20.7360    13.4370 ha         1 QB5       0.115000
     41 H14         39.9880    21.2370    11.1230 ha         1 QB5       0.116500
     42 H15         45.7000    17.5430    11.2210 hn         1 QB5       0.311500
     43 H16         47.3590    18.5480    12.5100 h1         1 QB5       0.053200
     44 H17         46.5010    20.0960    12.4040 h1         1 QB5       0.053200
     45 H18         46.5520    19.3100    14.7380 hc         1 QB5       0.065200
     46 H19         44.9000    19.3730    14.1520 hc         1 QB5       0.065200
     47 H20         47.3100    16.2410    13.4630 h4         1 QB5       0.157000
     48 H21         46.1330    14.2650    14.6980 hn         1 QB5       0.353000
     49 H22         44.1150    15.0690    16.0370 h5         1 QB5       0.055100
     50 N07         41.0450    16.1380     7.3600 ns         1 QB5      -0.140000
@<TRIPOS>BOND
     1     1     8 ar  
     2     1     9 ar  
     3     1    28 1   
     4     2     3 ar  
     5     2    10 ar  
     6     2    29 1   
     7     3     8 ar  
     8     3    11 1   
     9     4    12 1   
    10     4    13 ar  
    11     4    17 ar  
    12     5     6 1   
    13     5    30 1   
    14     5    31 1   
    15     5    32 1   
    16     6     7 2   
    17     6    50 1   
    18     8    50 1   
    19     9    10 ar  
    20     9    34 1   
    21    10    18 1   
    22    11    12 1   
    23    12    35 1   
    24    12    36 1   
    25    13    14 ar  
    26    13    37 1   
    27    14    15 ar  
    28    14    38 1   
    29    15    16 ar  
    30    15    39 1   
    31    16    17 ar  
    32    16    40 1   
    33    17    41 1   
    34    18    19 2   
    35    18    20 1   
    36    20    21 1   
    37    20    42 1   
    38    21    22 1   
    39    21    43 1   
    40    21    44 1   
    41    22    23 1   
    42    22    45 1   
    43    22    46 1   
    44    23    24 2   
    45    23    27 1   
    46    24    25 1   
    47    24    47 1   
    48    25    26 1   
    49    25    48 1   
    50    26    27 2   
    51    26    49 1   
    52    33    50 1   
@<TRIPOS>SUBSTRUCTURE
     1 QB5         1 TEMP              0 ****  ****    0 ROOT
