@<TRIPOS>MOLECULE
QB5
   50    52     1     0     0
SMALL
abcg2


@<TRIPOS>ATOM
      1 C10         43.1130    16.4230     8.5630 ca         1 QB5      -0.135000
      2 C15         42.7730    19.0250     9.4570 ca         1 QB5      -0.078000
      3 C17         41.7800    18.4190     8.7160 ca         1 QB5       0.053100
      4 C22         39.6280    18.8800    10.5820 ca         1 QB5      -0.135300
      5 C01         39.3890    15.0910     6.3450 c3         1 QB5      -0.182100
      6 C05         40.7290    15.3260     6.9920 c          1 QB5       0.609100
      7 O06         41.5870    14.4630     7.0390 o          1 QB5      -0.586100
      8 C09         41.9310    17.0970     8.2600 ca         1 QB5      -0.011000
      9 C12         44.0920    17.0340     9.3320 ca         1 QB5      -0.077000
     10 C14         43.9310    18.3320     9.7980 ca         1 QB5      -0.151600
     11 O18         40.6270    19.0530     8.3770 os         1 QB5      -0.372100
     12 C19         39.9510    19.7690     9.4150 c3         1 QB5       0.209900
     13 C23         38.6920    17.8570    10.4380 ca         1 QB5      -0.083000
     14 C25         38.4120    17.0070    11.4960 ca         1 QB5      -0.112500
     15 C27         39.0680    17.1690    12.7120 ca         1 QB5      -0.106000
     16 C29         40.0050    18.1810    12.8610 ca         1 QB5      -0.112500
     17 C31         40.2870    19.0280    11.7970 ca         1 QB5      -0.083000
     18 C33         44.9340    19.0400    10.6460 c          1 QB5       0.619700
     19 O34         44.9920    20.2640    10.6690 o          1 QB5      -0.610100
     20 N35         45.7540    18.2580    11.3670 ns         1 QB5      -0.482900
     21 C37         46.6450    18.7880    12.3740 c3         1 QB5       0.105000
     22 C40         45.9220    19.1940    13.6660 c3         1 QB5      -0.127700
     23 C43         45.0440    18.1090    14.1900 cc         1 QB5       0.239300
     24 C44         45.3800    17.0640    15.0080 cd         1 QB5      -0.231000
     25 N46         44.2450    16.3140    15.1290 na         1 QB5      -0.301500
     26 C48         43.2840    16.9150    14.4010 cd         1 QB5       0.386400
     27 N50         43.7290    18.0000    13.8200 nc         1 QB5      -0.673000
     28 H1          43.2730    15.4180     8.2120 ha         1 QB5       0.150000
     29 H2          42.6480    20.0460     9.7940 ha         1 QB5       0.140000
     30 H3          39.5110    14.4560     5.4700 hc         1 QB5       0.063700
     31 H4          38.7400    14.5650     7.0470 hc         1 QB5       0.063700
     32 H5          38.8860    16.0090     6.0450 hc         1 QB5       0.063700
     33 H6          40.0890    17.1950     7.4220 hn         1 QB5       0.167000
     34 H7          44.9950    16.4730     9.5390 ha         1 QB5       0.114000
     35 H8          40.5380    20.6340     9.7350 h1         1 QB5       0.060200
     36 H9          39.0440    20.1470     8.9440 h1         1 QB5       0.060200
     37 H10         38.1710    17.7320     9.4960 ha         1 QB5       0.116500
     38 H11         37.6790    16.2190    11.3770 ha         1 QB5       0.115000
     39 H12         38.8450    16.5070    13.5400 ha         1 QB5       0.108000
     40 H13         40.5250    18.3110    13.8010 ha         1 QB5       0.115000
     41 H14         41.0300    19.8070    11.9180 ha         1 QB5       0.116500
     42 H15         45.5200    17.2820    11.4520 hn         1 QB5       0.311500
     43 H16         47.3810    18.0140    12.5910 h1         1 QB5       0.053200
     44 H17         47.1860    19.6410    11.9660 h1         1 QB5       0.053200
     45 H18         46.6810    19.4660    14.4030 hc         1 QB5       0.065200
     46 H19         45.3230    20.0860    13.4780 hc         1 QB5       0.065200
     47 H20         46.3010    16.8000    15.4990 h4         1 QB5       0.157000
     48 H21         44.1430    15.4710    15.6700 hn         1 QB5       0.353000
     49 H22         42.2820    16.5210    14.3300 h5         1 QB5       0.055100
     50 N07         40.8690    16.5660     7.5350 ns         1 QB5      -0.140000
@<TRIPOS>BOND
     1     1     8 ar  
     2     1     9 ar  
     3     1    28 1   
     4     2     3 ar  
     5     2    10 ar  
     6     2    29 1   
     7     3     8 ar  
     8     3    11 1   
     9     4    12 1   
    10     4    13 ar  
    11     4    17 ar  
    12     5     6 1   
    13     5    30 1   
    14     5    31 1   
    15     5    32 1   
    16     6     7 2   
    17     6    50 1   
    18     8    50 1   
    19     9    10 ar  
    20     9    34 1   
    21    10    18 1   
    22    11    12 1   
    23    12    35 1   
    24    12    36 1   
    25    13    14 ar  
    26    13    37 1   
    27    14    15 ar  
    28    14    38 1   
    29    15    16 ar  
    30    15    39 1   
    31    16    17 ar  
    32    16    40 1   
    33    17    41 1   
    34    18    19 2   
    35    18    20 1   
    36    20    21 1   
    37    20    42 1   
    38    21    22 1   
    39    21    43 1   
    40    21    44 1   
    41    22    23 1   
    42    22    45 1   
    43    22    46 1   
    44    23    24 2   
    45    23    27 1   
    46    24    25 1   
    47    24    47 1   
    48    25    26 1   
    49    25    48 1   
    50    26    27 2   
    51    26    49 1   
    52    33    50 1   
@<TRIPOS>SUBSTRUCTURE
     1 QB5         1 TEMP              0 ****  ****    0 ROOT
