@<TRIPOS>MOLECULE
QB6
   20    20     1     0     0
SMALL
No Charge or Current Charge


@<TRIPOS>ATOM
      1 C02        -12.6940    17.7250   -14.7990 ca         1 QB6       0.253000
      2 C03        -13.0820    16.4720   -14.2450 ca         1 QB6       0.125100
      3 C05        -12.4450    15.2910   -14.6630 ca         1 QB6      -0.185000
      4 C06        -11.4220    15.3370   -15.6260 ca         1 QB6      -0.002000
      5 C07        -11.0270    16.5720   -16.1770 ca         1 QB6      -0.275500
      6 C08        -11.6680    17.7620   -15.7610 ca         1 QB6      -0.069000
      7 N01        -13.3050    18.9020   -14.4050 nv         1 QB6      -1.068000
      8 N10        -10.5320    16.4810   -18.8150 n8         1 QB6      -1.002100
      9 O04        -14.0750    16.3950   -13.2980 oh         1 QB6      -0.541100
     10 O11         -8.8990    15.4210   -17.3620 o          1 QB6      -0.555500
     11 O12         -9.1360    17.9660   -17.4950 o          1 QB6      -0.555500
     12 S09         -9.7190    16.6290   -17.4100 sy         1 QB6       1.152600
     13 H1         -12.7370    14.3300   -14.2450 ha         1 QB6       0.119000
     14 H2         -10.9400    14.4110   -15.9400 ha         1 QB6       0.141000
     15 H3         -11.3710    18.7170   -16.1880 ha         1 QB6       0.134000
     16 H4         -13.9510    18.8710   -13.6170 hn         1 QB6       0.457500
     17 H5         -12.8960    19.8040   -14.6460 hn         1 QB6       0.457500
     18 H6         -10.1750    17.2920   -19.3130 hn         1 QB6       0.471500
     19 H7         -10.0110    15.7200   -19.2430 hn         1 QB6       0.471500
     20 H8         -14.1950    15.4530   -13.0480 ho         1 QB6       0.471000
@<TRIPOS>BOND
     1     1     2 ar  
     2     1     6 ar  
     3     1     7 1   
     4     2     3 ar  
     5     2     9 1   
     6     3     4 ar  
     7     3    13 1   
     8     4     5 ar  
     9     4    14 1   
    10     5     6 ar  
    11     5    12 1   
    12     6    15 1   
    13     7    16 1   
    14     7    17 1   
    15     8    12 1   
    16     8    18 1   
    17     8    19 1   
    18     9    20 1   
    19    10    12 2   
    20    11    12 2   
@<TRIPOS>SUBSTRUCTURE
     1 QB6         1 TEMP              0 ****  ****    0 ROOT
