@<TRIPOS>MOLECULE
QB6
   20    20     1     0     0
SMALL
abcg2


@<TRIPOS>ATOM
      1 C02        -12.6560    17.7180   -14.8640 ca         1 QB6       0.253000
      2 C03        -13.0550    16.4740   -14.3300 ca         1 QB6       0.125100
      3 C05        -12.4270    15.2960   -14.7090 ca         1 QB6      -0.185000
      4 C06        -11.3900    15.3130   -15.6330 ca         1 QB6      -0.002000
      5 C07        -10.9900    16.5370   -16.1550 ca         1 QB6      -0.275500
      6 C08        -11.6060    17.7290   -15.7790 ca         1 QB6      -0.069000
      7 N01        -13.3410    18.8680   -14.5110 nv         1 QB6      -1.068000
      8 N10        -10.4890    16.3530   -18.7660 n8         1 QB6      -1.002100
      9 O04        -14.0740    16.5140   -13.4290 oh         1 QB6      -0.541100
     10 O11         -8.8340    15.4280   -17.1840 o          1 QB6      -0.555500
     11 O12         -9.0750    17.8980   -17.2780 o          1 QB6      -0.555500
     12 S09         -9.6880    16.5860   -17.3380 sy         1 QB6       1.152600
     13 H1         -12.7550    14.3600   -14.2730 ha         1 QB6       0.119000
     14 H2         -10.8990    14.3980   -15.9300 ha         1 QB6       0.141000
     15 H3         -11.2710    18.6710   -16.1920 ha         1 QB6       0.134000
     16 H4         -13.8090    18.8310   -13.6180 hn         1 QB6       0.457500
     17 H5         -12.8380    19.7320   -14.6530 hn         1 QB6       0.457500
     18 H6         -10.9770    17.1910   -19.0680 hn         1 QB6       0.471500
     19 H7          -9.8430    16.0320   -19.4830 hn         1 QB6       0.471500
     20 H8         -14.2650    15.6240   -13.1020 ho         1 QB6       0.471000
@<TRIPOS>BOND
     1     1     2 ar  
     2     1     6 ar  
     3     1     7 1   
     4     2     3 ar  
     5     2     9 1   
     6     3     4 ar  
     7     3    13 1   
     8     4     5 ar  
     9     4    14 1   
    10     5     6 ar  
    11     5    12 1   
    12     6    15 1   
    13     7    16 1   
    14     7    17 1   
    15     8    12 1   
    16     8    18 1   
    17     8    19 1   
    18     9    20 1   
    19    10    12 2   
    20    11    12 2   
@<TRIPOS>SUBSTRUCTURE
     1 QB6         1 TEMP              0 ****  ****    0 ROOT
