@<TRIPOS>MOLECULE
QB7
   67    70     1     0     0
SMALL
abcg2


@<TRIPOS>ATOM
      1 O7          13.5760    10.0750    40.5620 o          1 QB7      -0.742000
      2 C23         14.0450     9.9610    41.7180 c          1 QB7       0.720000
      3 O8          15.2340     9.7730    42.0280 o          1 QB7      -0.742000
      4 C22         13.0220    10.0380    42.8660 c3         1 QB7      -0.204400
      5 C21         11.6890    10.6230    42.4210 c3         1 QB7      -0.133400
      6 C20         11.0630     9.8070    41.3160 c          1 QB7       0.641300
      7 O6          10.8590     8.6160    41.4610 o          1 QB7      -0.533100
      8 C19         10.6350    10.4680    40.0720 cc         1 QB7      -0.098600
      9 S1          10.9310    12.1550    39.7570 ss         1 QB7       0.034400
     10 C24         10.0800     9.8390    39.0030 cd         1 QB7      -0.104200
     11 C25          9.9030    10.6950    37.8800 ca         1 QB7      -0.053800
     12 C18         10.3310    12.0000    38.1460 ca         1 QB7      -0.178000
     13 C17         10.3100    12.9860    37.1620 ca         1 QB7      -0.132000
     14 C26          9.4360    10.3670    36.5970 ca         1 QB7      -0.114000
     15 C27          9.4360    11.3270    35.6100 ca         1 QB7       0.090100
     16 O9           9.0560    11.1160    34.3360 os         1 QB7      -0.346100
     17 C28          8.6710     9.8080    33.9680 c3         1 QB7       0.141900
     18 C            9.8930    12.6460    35.8930 ca         1 QB7       0.097100
     19 O            9.8960    13.5170    34.8640 os         1 QB7      -0.361100
     20 C1          11.0380    14.3550    34.6750 c3         1 QB7       0.163600
     21 C2          11.6580    14.0770    33.3180 c3         1 QB7      -0.102400
     22 C3          12.1410    12.6510    33.1300 c3         1 QB7       0.163600
     23 O1          13.2550    12.3750    33.9870 os         1 QB7      -0.353100
     24 C4          13.1710    11.3920    34.9070 ca         1 QB7       0.032100
     25 C15         13.5740    11.6940    36.2400 ca         1 QB7       0.122100
     26 O5          13.9390    12.9690    36.4340 os         1 QB7      -0.346100
     27 C16         14.3290    13.3610    37.7350 c3         1 QB7       0.140900
     28 C14         13.5750    10.7270    37.2280 ca         1 QB7      -0.141000
     29 C13         13.1310     9.4480    36.9010 ca         1 QB7      -0.149000
     30 C6          12.7140     9.1150    35.6060 ca         1 QB7      -0.143800
     31 C5          12.7780    10.1050    34.6250 ca         1 QB7       0.164000
     32 F           12.4250     9.7690    33.3760 f          1 QB7      -0.194000
     33 S           12.9720     8.0990    37.9700 ss         1 QB7       0.299400
     34 C8          12.3010     7.1230    36.6950 cc         1 QB7      -0.142600
     35 C7          12.2360     7.7780    35.5070 cd         1 QB7      -0.144200
     36 C9          11.8300     5.7860    37.0700 c          1 QB7       0.646300
     37 O2          12.0590     5.3740    38.1940 o          1 QB7      -0.551100
     38 C10         11.1340     4.9330    36.0410 c3         1 QB7      -0.129400
     39 C11          9.8060     4.3980    36.5590 c3         1 QB7      -0.205400
     40 C12          8.8380     5.5160    36.9920 c          1 QB7       0.718000
     41 O3           7.6470     5.1990    37.1560 o          1 QB7      -0.738500
     42 O4           9.3470     6.6480    37.1610 o          1 QB7      -0.738500
     43 H19         12.8710     9.0320    43.2690 hc         1 QB7       0.027700
     44 H20         13.4280    10.6290    43.6910 hc         1 QB7       0.027700
     45 H18         11.8220    11.6670    42.1310 hc         1 QB7       0.025700
     46 H17         10.9820    10.6260    43.2570 hc         1 QB7       0.025700
     47 H22          9.8400     8.7850    38.9870 ha         1 QB7       0.260000
     48 H16         10.6450    13.9930    37.3790 ha         1 QB7       0.109000
     49 H23          9.1270     9.3480    36.4010 ha         1 QB7       0.170000
     50 H25          8.4330     9.8420    32.9080 h1         1 QB7       0.041700
     51 H26          9.4770     9.0860    34.1260 h1         1 QB7       0.041700
     52 H24          7.7880     9.4730    34.5170 h1         1 QB7       0.041700
     53 H           11.7730    14.1950    35.4670 h1         1 QB7       0.044700
     54 H1          10.7150    15.3960    34.7330 h1         1 QB7       0.044700
     55 H2          12.4810    14.7800    33.1670 hc         1 QB7       0.039700
     56 H3          10.9300    14.2830    32.5300 hc         1 QB7       0.039700
     57 H5          11.3180    11.9590    33.3060 h1         1 QB7       0.051200
     58 H4          12.4730    12.5110    32.0990 h1         1 QB7       0.051200
     59 H15         14.5620    14.4220    37.6790 h1         1 QB7       0.041700
     60 H14         13.5250    13.2110    38.4610 h1         1 QB7       0.041700
     61 H13         15.2160    12.8200    38.0730 h1         1 QB7       0.041700
     62 H12         13.8640    10.9440    38.2470 ha         1 QB7       0.182000
     63 H6          11.8350     7.3480    34.6000 ha         1 QB7       0.194000
     64 H7          11.8060     4.1010    35.8020 hc         1 QB7       0.025700
     65 H8          10.9790     5.4790    35.1120 hc         1 QB7       0.025700
     66 H9           9.3370     3.7770    35.7920 hc         1 QB7       0.024700
     67 H10          9.9750     3.7330    37.4120 hc         1 QB7       0.024700
@<TRIPOS>BOND
     1     1     2 1   
     2     2     3 1   
     3     2     4 1   
     4     4     5 1   
     5     4    43 1   
     6     4    44 1   
     7     5     6 1   
     8     5    45 1   
     9     5    46 1   
    10     6     7 2   
    11     6     8 1   
    12     8     9 1   
    13     8    10 2   
    14     9    12 1   
    15    10    11 1   
    16    10    47 1   
    17    11    12 ar  
    18    11    14 ar  
    19    12    13 ar  
    20    13    18 ar  
    21    13    48 1   
    22    14    15 ar  
    23    14    49 1   
    24    15    16 1   
    25    15    18 ar  
    26    16    17 1   
    27    17    50 1   
    28    17    51 1   
    29    17    52 1   
    30    18    19 1   
    31    19    20 1   
    32    20    21 1   
    33    20    53 1   
    34    20    54 1   
    35    21    22 1   
    36    21    55 1   
    37    21    56 1   
    38    22    23 1   
    39    22    57 1   
    40    22    58 1   
    41    23    24 1   
    42    24    25 ar  
    43    24    31 ar  
    44    25    26 1   
    45    25    28 ar  
    46    26    27 1   
    47    27    59 1   
    48    27    60 1   
    49    27    61 1   
    50    28    29 ar  
    51    28    62 1   
    52    29    30 ar  
    53    29    33 1   
    54    30    31 ar  
    55    30    35 1   
    56    31    32 1   
    57    33    34 1   
    58    34    35 2   
    59    34    36 1   
    60    35    63 1   
    61    36    37 2   
    62    36    38 1   
    63    38    39 1   
    64    38    64 1   
    65    38    65 1   
    66    39    40 1   
    67    39    66 1   
    68    39    67 1   
    69    40    41 1   
    70    40    42 1   
@<TRIPOS>SUBSTRUCTURE
     1 QB7         1 TEMP              0 ****  ****    0 ROOT
