@<TRIPOS>MOLECULE
QB7
   67    70     1     0     0
SMALL
No Charge or Current Charge


@<TRIPOS>ATOM
      1 O7          14.3640     9.7150    40.8440 o          1 QB7      -0.742000
      2 C23         14.1290    10.5520    41.6980 c          1 QB7       0.720000
      3 O8          14.5820    11.6850    41.6870 o          1 QB7      -0.742000
      4 C22         13.1550    10.1690    42.8230 c3         1 QB7      -0.204400
      5 C21         11.6900    10.5400    42.4510 c3         1 QB7      -0.133400
      6 C20         11.1350     9.7310    41.2520 c          1 QB7       0.641300
      7 O6          10.8460     8.5470    41.4030 o          1 QB7      -0.533100
      8 C19         10.9070    10.4200    39.9530 cc         1 QB7      -0.098600
      9 S1          11.2800    12.1380    39.6180 ss         1 QB7       0.034400
     10 C24         10.2970     9.8190    38.8650 cd         1 QB7      -0.104200
     11 C25         10.0650    10.6970    37.7440 ca         1 QB7      -0.053800
     12 C18         10.5290    11.9660    38.0060 ca         1 QB7      -0.178000
     13 C17         10.4070    12.9870    37.0530 ca         1 QB7      -0.132000
     14 C26          9.4340    10.3790    36.5340 ca         1 QB7      -0.114000
     15 C27          9.2760    11.3960    35.5590 ca         1 QB7       0.090100
     16 O9           8.6560    11.1480    34.3440 os         1 QB7      -0.346100
     17 C28          8.2380     9.8290    33.9510 c3         1 QB7       0.141900
     18 C            9.7840    12.7000    35.8160 ca         1 QB7       0.097100
     19 O            9.6470    13.6900    34.8560 os         1 QB7      -0.361100
     20 C1          10.7600    14.5370    34.4880 c3         1 QB7       0.163600
     21 C2          11.4300    13.9710    33.2100 c3         1 QB7      -0.102400
     22 C3          11.9040    12.5090    33.3290 c3         1 QB7       0.163600
     23 O1          12.8630    12.4400    34.4000 os         1 QB7      -0.353100
     24 C4          13.0030    11.3370    35.2390 ca         1 QB7       0.032100
     25 C15         13.6490    11.5500    36.4890 ca         1 QB7       0.122100
     26 O5          14.1310    12.8190    36.7740 os         1 QB7      -0.346100
     27 C16         14.7650    13.1420    38.0240 c3         1 QB7       0.140900
     28 C14         13.7780    10.4870    37.4150 ca         1 QB7      -0.141000
     29 C13         13.2530     9.2280    37.0930 ca         1 QB7      -0.149000
     30 C6          12.6390     9.0120    35.8810 ca         1 QB7      -0.143800
     31 C5          12.5130    10.0330    34.9260 ca         1 QB7       0.164000
     32 F           11.9500     9.7300    33.7320 f          1 QB7      -0.194000
     33 S           13.2950     7.7880    38.1560 ss         1 QB7       0.299400
     34 C8          12.4100     6.8750    36.9080 cc         1 QB7      -0.142600
     35 C7          12.1570     7.6540    35.7860 cd         1 QB7      -0.144200
     36 C9          12.0030     5.4680    37.1420 c          1 QB7       0.646300
     37 O2          12.2860     4.8950    38.1900 o          1 QB7      -0.551100
     38 C10         11.2220     4.7030    36.0470 c3         1 QB7      -0.129400
     39 C11          9.6910     4.6590    36.3260 c3         1 QB7      -0.205400
     40 C12          9.0790     6.0700    36.2970 c          1 QB7       0.718000
     41 O3           8.7070     6.5140    35.2230 o          1 QB7      -0.738500
     42 O4           9.0460     6.6980    37.3430 o          1 QB7      -0.738500
     43 H19         13.1650     9.0850    42.9900 hc         1 QB7       0.027700
     44 H20         13.3780    10.7520    43.7250 hc         1 QB7       0.027700
     45 H18         11.6500    11.6160    42.2570 hc         1 QB7       0.025700
     46 H17         11.0660    10.3190    43.3250 hc         1 QB7       0.025700
     47 H22          9.9770     8.7790    38.8690 ha         1 QB7       0.260000
     48 H16         10.7770    13.9840    37.2780 ha         1 QB7       0.109000
     49 H23          9.0770     9.3660    36.3720 ha         1 QB7       0.170000
     50 H25          7.7970     9.8530    32.9470 h1         1 QB7       0.041700
     51 H26          9.0920     9.1400    33.9300 h1         1 QB7       0.041700
     52 H24          7.4830     9.4350    34.6440 h1         1 QB7       0.041700
     53 H           11.5010    14.6160    35.2930 h1         1 QB7       0.044700
     54 H1          10.4000    15.5500    34.2690 h1         1 QB7       0.044700
     55 H2          12.2840    14.6050    32.9440 hc         1 QB7       0.039700
     56 H3          10.7190    14.0410    32.3780 hc         1 QB7       0.039700
     57 H5          11.0240    11.8900    33.5320 h1         1 QB7       0.051200
     58 H4          12.3500    12.1710    32.3850 h1         1 QB7       0.051200
     59 H15         15.0610    14.1990    38.0380 h1         1 QB7       0.041700
     60 H14         14.0820    12.9710    38.8660 h1         1 QB7       0.041700
     61 H13         15.6680    12.5350    38.1730 h1         1 QB7       0.041700
     62 H12         14.2570    10.6280    38.3790 ha         1 QB7       0.182000
     63 H6          11.6090     7.3030    34.9170 ha         1 QB7       0.194000
     64 H7          11.5830     3.6670    36.0210 hc         1 QB7       0.025700
     65 H8          11.3720     5.1570    35.0630 hc         1 QB7       0.025700
     66 H9           9.2670     4.0490    35.5190 hc         1 QB7       0.024700
     67 H10          9.5760     4.2090    37.3200 hc         1 QB7       0.024700
@<TRIPOS>BOND
     1     1     2 1   
     2     2     3 1   
     3     2     4 1   
     4     4     5 1   
     5     4    43 1   
     6     4    44 1   
     7     5     6 1   
     8     5    45 1   
     9     5    46 1   
    10     6     7 2   
    11     6     8 1   
    12     8     9 1   
    13     8    10 2   
    14     9    12 1   
    15    10    11 1   
    16    10    47 1   
    17    11    12 ar  
    18    11    14 ar  
    19    12    13 ar  
    20    13    18 ar  
    21    13    48 1   
    22    14    15 ar  
    23    14    49 1   
    24    15    16 1   
    25    15    18 ar  
    26    16    17 1   
    27    17    50 1   
    28    17    51 1   
    29    17    52 1   
    30    18    19 1   
    31    19    20 1   
    32    20    21 1   
    33    20    53 1   
    34    20    54 1   
    35    21    22 1   
    36    21    55 1   
    37    21    56 1   
    38    22    23 1   
    39    22    57 1   
    40    22    58 1   
    41    23    24 1   
    42    24    25 ar  
    43    24    31 ar  
    44    25    26 1   
    45    25    28 ar  
    46    26    27 1   
    47    27    59 1   
    48    27    60 1   
    49    27    61 1   
    50    28    29 ar  
    51    28    62 1   
    52    29    30 ar  
    53    29    33 1   
    54    30    31 ar  
    55    30    35 1   
    56    31    32 1   
    57    33    34 1   
    58    34    35 2   
    59    34    36 1   
    60    35    63 1   
    61    36    37 2   
    62    36    38 1   
    63    38    39 1   
    64    38    64 1   
    65    38    65 1   
    66    39    40 1   
    67    39    66 1   
    68    39    67 1   
    69    40    41 1   
    70    40    42 1   
@<TRIPOS>SUBSTRUCTURE
     1 QB7         1 TEMP              0 ****  ****    0 ROOT
