@<TRIPOS>MOLECULE
QB8
   45    49     1     0     0
SMALL
bcc


@<TRIPOS>ATOM
      1 N1          -4.7630   -44.3550     3.3340 nc         1 QB8      -0.744000
      2 C2          -5.3490   -43.2450     3.7530 cc         1 QB8       0.501500
      3 N3          -6.5970   -41.3530     3.5630 nc         1 QB8      -0.610100
      4 C4          -5.6030   -43.8370     1.1420 cd         1 QB8      -0.446300
      5 C5          -6.2200   -42.6850     1.6040 cc         1 QB8       0.345300
      6 C6          -6.2040   -41.4780     4.8060 cd         1 QB8       0.461500
      7 O           -0.8490   -46.8610     7.3340 o          1 QB8      -0.596100
      8 C16         -1.5790   -47.0020     6.3650 c          1 QB8       0.681100
      9 C17         -3.0790   -47.0410     6.5020 c3         1 QB8      -0.178100
     10 C15         -1.7320   -47.2880     3.8950 ca         1 QB8       0.072600
     11 C18         -1.4040   -48.3810     3.0790 ca         1 QB8      -0.168000
     12 C19         -2.0160   -48.5520     1.8550 ca         1 QB8      -0.071000
     13 C12         -2.9870   -47.6390     1.4480 ca         1 QB8      -0.111800
     14 C11         -3.7880   -47.5330     0.2660 cc         1 QB8      -0.154200
     15 C10         -4.5460   -46.4240     0.3980 cd         1 QB8      -0.109100
     16 C14         -2.6720   -46.3500     3.4980 ca         1 QB8      -0.130000
     17 C13         -3.3160   -46.5510     2.2800 ca         1 QB8      -0.005200
     18 N5          -4.2820   -45.8020     1.6130 na         1 QB8      -0.106200
     19 C3          -4.8940   -44.6370     2.0520 cd         1 QB8       0.630800
     20 N4          -6.9170   -41.8170     0.8790 nu         1 QB8      -0.727600
     21 C7          -7.1890   -42.0200    -0.5060 cx         1 QB8       0.146500
     22 C9          -7.1510   -40.8270    -1.4000 cx         1 QB8      -0.126400
     23 C8          -6.0720   -41.8590    -1.4930 cx         1 QB8      -0.126400
     24 N2          -6.0750   -42.4250     2.9340 na         1 QB8      -0.002800
     25 C1          -5.4200   -42.6320     5.0090 cd         1 QB8      -0.243300
     26 C           -4.8200   -43.0930     6.1900 ch         1 QB8       0.251500
     27 N           -4.3210   -43.4780     7.1570 n1         1 QB8      -0.381800
     28 H1          -5.6590   -44.0650     0.0910 ha         1 QB8       0.167000
     29 H2          -6.4860   -40.7440     5.5460 h4         1 QB8       0.058800
     30 H3          -3.3320   -47.3030     7.5260 hc         1 QB8       0.067033
     31 H4          -3.5100   -46.0600     6.2970 hc         1 QB8       0.067033
     32 H5          -3.5490   -47.7510     5.8240 hc         1 QB8       0.067033
     33 H6          -0.0430   -47.2020     5.0890 hn         1 QB8       0.320500
     34 H7          -0.6640   -49.0930     3.4210 ha         1 QB8       0.139000
     35 H8          -1.7490   -49.3890     1.2230 ha         1 QB8       0.138000
     36 H9          -3.7980   -48.2090    -0.5740 ha         1 QB8       0.160000
     37 H10         -5.2880   -46.0330    -0.2760 h4         1 QB8       0.166000
     38 H11         -2.8910   -45.4950     4.1140 ha         1 QB8       0.175000
     39 H12         -7.3620   -41.0500     1.3630 hn         1 QB8       0.481800
     40 H13         -7.9360   -42.7810    -0.7140 h1         1 QB8       0.094700
     41 H14         -6.8960   -39.8740    -0.9530 hc         1 QB8       0.086200
     42 H15         -7.8910   -40.7720    -2.1870 hc         1 QB8       0.086200
     43 H16         -6.0570   -42.5260    -2.3440 hc         1 QB8       0.086200
     44 H17         -5.0960   -41.5980    -1.1030 hc         1 QB8       0.086200
     45 N6          -1.0520   -47.1350     5.1210 ns         1 QB8      -0.501100
@<TRIPOS>BOND
     1     1     2 1   
     2     1    19 2   
     3     2    24 1   
     4     2    25 2   
     5     3     6 2   
     6     3    24 1   
     7     4     5 2   
     8     4    19 1   
     9     4    28 1   
    10     5    20 1   
    11     5    24 1   
    12     6    25 1   
    13     6    29 1   
    14     7     8 2   
    15     8     9 1   
    16     8    45 1   
    17     9    30 1   
    18     9    31 1   
    19     9    32 1   
    20    10    11 ar  
    21    10    16 ar  
    22    10    45 1   
    23    11    12 ar  
    24    11    34 1   
    25    12    13 ar  
    26    12    35 1   
    27    13    14 1   
    28    13    17 ar  
    29    14    15 2   
    30    14    36 1   
    31    15    18 1   
    32    15    37 1   
    33    16    17 ar  
    34    16    38 1   
    35    17    18 1   
    36    18    19 1   
    37    20    21 1   
    38    20    39 1   
    39    21    22 1   
    40    21    23 1   
    41    21    40 1   
    42    22    23 1   
    43    22    41 1   
    44    22    42 1   
    45    23    43 1   
    46    23    44 1   
    47    25    26 1   
    48    26    27 3   
    49    33    45 1   
@<TRIPOS>SUBSTRUCTURE
     1 QB8         1 TEMP              0 ****  ****    0 ROOT
