@<TRIPOS>MOLECULE
QB8
   45    49     1     0     0
SMALL
No Charge or Current Charge


@<TRIPOS>ATOM
      1 N1          -4.9280   -44.7810     3.2750 nc         1 QB8      -0.744000
      2 C2          -5.7350   -43.7560     3.6730 cc         1 QB8       0.501500
      3 N3          -7.1420   -41.8770     3.6140 nc         1 QB8      -0.610100
      4 C4          -5.4310   -43.8540     1.0630 cd         1 QB8      -0.363000
      5 C5          -6.2300   -42.8320     1.5340 cc         1 QB8       0.433000
      6 C6          -6.9380   -42.3110     4.8570 cd         1 QB8       0.461500
      7 O            0.1400   -46.1630     6.7080 o          1 QB8      -0.596100
      8 C16         -0.8610   -46.3470     6.0250 c          1 QB8       0.614100
      9 C17         -2.1790   -45.6440     6.3590 c3         1 QB8      -0.178100
     10 C15         -1.7390   -47.4810     3.9040 ca         1 QB8      -0.020000
     11 C18         -1.8690   -48.7930     3.3880 ca         1 QB8      -0.150000
     12 C19         -2.6940   -49.0510     2.2740 ca         1 QB8      -0.053000
     13 C12         -3.3820   -47.9730     1.7060 ca         1 QB8      -0.111800
     14 C11         -4.2270   -47.9310     0.5470 cc         1 QB8      -0.204200
     15 C10         -4.6310   -46.6120     0.3750 cd         1 QB8      -0.159100
     16 C14         -2.4320   -46.4140     3.2830 ca         1 QB8      -0.112000
     17 C13         -3.2870   -46.7010     2.2030 ca         1 QB8      -0.005200
     18 N5          -4.0110   -45.8280     1.3850 na         1 QB8      -0.106200
     19 C3          -4.8040   -44.8020     1.9500 cd         1 QB8       0.565500
     20 N4          -6.8540   -41.8880     0.7510 nu         1 QB8      -0.921200
     21 C7          -6.8610   -41.7410    -0.6760 cx         1 QB8       0.146500
     22 C9          -6.9520   -40.3400    -1.2270 cx         1 QB8      -0.126400
     23 C8          -5.6510   -41.1010    -1.3090 cx         1 QB8      -0.126400
     24 N2          -6.3790   -42.8050     2.9230 na         1 QB8       0.047900
     25 C1          -6.0920   -43.4520     4.9490 cd         1 QB8      -0.243300
     26 C           -5.7130   -44.1300     6.1260 ch         1 QB8       0.340700
     27 N           -5.4280   -44.6710     7.1190 n1         1 QB8      -0.471000
     28 H1          -5.2590   -43.9320    -0.0010 ha         1 QB8       0.149000
     29 H2          -7.4160   -41.7860     5.6740 h4         1 QB8       0.058800
     30 H3          -2.2290   -45.3660     7.4170 hc         1 QB8       0.067033
     31 H4          -2.2460   -44.7300     5.7600 hc         1 QB8       0.067033
     32 H5          -3.0380   -46.2500     6.0500 hc         1 QB8       0.067033
     33 H6          -0.0130   -47.8330     4.9490 hn         1 QB8       0.154000
     34 H7          -1.3210   -49.6140     3.8460 ha         1 QB8       0.121000
     35 H8          -2.7810   -50.0530     1.8610 ha         1 QB8       0.120000
     36 H9          -4.5460   -48.7740    -0.0640 ha         1 QB8       0.210000
     37 H10         -5.3330   -46.2010    -0.3460 h4         1 QB8       0.216000
     38 H11         -2.2970   -45.3860     3.6040 ha         1 QB8       0.157000
     39 H12         -7.3990   -41.2460     1.3360 hn         1 QB8       0.537000
     40 H13         -7.3580   -42.5420    -1.2290 h1         1 QB8       0.094700
     41 H14         -7.0100   -39.5120    -0.5250 hc         1 QB8       0.086200
     42 H15         -7.5150   -40.1980    -2.1460 hc         1 QB8       0.086200
     43 H16         -5.3380   -41.4710    -2.2820 hc         1 QB8       0.086200
     44 H17         -4.8380   -40.7910    -0.6570 hc         1 QB8       0.086200
     45 N6          -0.8570   -47.2780     4.9970 ns         1 QB8      -0.175000
@<TRIPOS>BOND
     1     1     2 1   
     2     1    19 2   
     3     2    24 1   
     4     2    25 2   
     5     3     6 2   
     6     3    24 1   
     7     4     5 2   
     8     4    19 1   
     9     4    28 1   
    10     5    20 1   
    11     5    24 1   
    12     6    25 1   
    13     6    29 1   
    14     7     8 2   
    15     8     9 1   
    16     8    45 1   
    17     9    30 1   
    18     9    31 1   
    19     9    32 1   
    20    10    11 ar  
    21    10    16 ar  
    22    10    45 1   
    23    11    12 ar  
    24    11    34 1   
    25    12    13 ar  
    26    12    35 1   
    27    13    14 1   
    28    13    17 ar  
    29    14    15 2   
    30    14    36 1   
    31    15    18 1   
    32    15    37 1   
    33    16    17 ar  
    34    16    38 1   
    35    17    18 1   
    36    18    19 1   
    37    20    21 1   
    38    20    39 1   
    39    21    22 1   
    40    21    23 1   
    41    21    40 1   
    42    22    23 1   
    43    22    41 1   
    44    22    42 1   
    45    23    43 1   
    46    23    44 1   
    47    25    26 1   
    48    26    27 3   
    49    33    45 1   
@<TRIPOS>SUBSTRUCTURE
     1 QB8         1 TEMP              0 ****  ****    0 ROOT
