@<TRIPOS>MOLECULE
QBA
   67    70     1     0     0
SMALL
No Charge or Current Charge


@<TRIPOS>ATOM
      1 O8          14.1260     9.1960    40.4880 o          1 QBA      -0.743500
      2 C28         14.1080     9.9530    41.4450 c          1 QBA       0.723500
      3 O9          14.6690    11.0370    41.4670 o          1 QBA      -0.743500
      4 C27         13.2830     9.5360    42.6750 c3         1 QBA      -0.204400
      5 C26         11.8130    10.0340    42.5650 c3         1 QBA      -0.129400
      6 C25         11.0230     9.3160    41.4440 c          1 QBA       0.625300
      7 O7          10.5840     8.1870    41.6400 o          1 QBA      -0.498600
      8 C23         10.7910    10.0220    40.1560 cc         1 QBA      -0.096600
      9 C24         10.0960     9.4710    39.0920 cd         1 QBA      -0.109200
     10 C20         10.0290    10.3090    37.9200 ca         1 QBA      -0.056300
     11 C19          9.4260    10.0070    36.6920 ca         1 QBA      -0.112500
     12 C17          9.5240    10.9450    35.6350 ca         1 QBA       0.080600
     13 O6           8.9740    10.6930    34.3870 os         1 QBA      -0.346100
     14 C18          8.2910     9.4640    34.0800 c3         1 QBA       0.143900
     15 S1          11.3860    11.6630    39.7630 ss         1 QBA       0.033900
     16 C21         10.6810    11.5020    38.1300 ca         1 QBA      -0.173500
     17 C22         10.7850    12.4560    37.1100 ca         1 QBA      -0.134500
     18 C16         10.2220    12.1670    35.8400 ca         1 QBA       0.100600
     19 O5          10.3740    13.0270    34.7630 os         1 QBA      -0.355100
     20 C15         11.2830    14.1410    34.7870 c3         1 QBA       0.167100
     21 C14         11.7850    14.3740    33.3480 c3         1 QBA      -0.100400
     22 C13         12.4880    13.1520    32.7030 c3         1 QBA       0.167100
     23 O4          13.5800    12.7270    33.5490 os         1 QBA      -0.355100
     24 C           13.4320    11.6970    34.4650 ca         1 QBA       0.100600
     25 C5          12.7790    10.4950    34.0980 ca         1 QBA      -0.134500
     26 C4          12.6520     9.4720    35.0480 ca         1 QBA      -0.173500
     27 S           11.8480     7.8990    34.7760 ss         1 QBA       0.033900
     28 C6          12.2500     7.4250    36.4550 cc         1 QBA      -0.096600
     29 C8          12.0000     6.0860    37.0540 c          1 QBA       0.625300
     30 C9          11.3460     4.9800    36.1890 c3         1 QBA      -0.129400
     31 C10          9.9090     4.6080    36.6550 c3         1 QBA      -0.204400
     32 C11          8.9530     5.8030    36.5110 c          1 QBA       0.723500
     33 O2           8.8440     6.5590    37.4620 o          1 QBA      -0.743500
     34 O1           8.3880     5.9670    35.4410 o          1 QBA      -0.743500
     35 O           12.3450     5.8290    38.2030 o          1 QBA      -0.498600
     36 C7          12.9040     8.4490    37.1200 cd         1 QBA      -0.109200
     37 C3          13.1480     9.6270    36.3230 ca         1 QBA      -0.056300
     38 C2          13.8100    10.7960    36.7190 ca         1 QBA      -0.112500
     39 C1          13.9640    11.8450    35.7770 ca         1 QBA       0.080600
     40 O3          14.6010    13.0310    36.1080 os         1 QBA      -0.346100
     41 C12         15.0700    13.3050    37.4400 c3         1 QBA       0.143900
     42 H26         13.2290     8.4430    42.7510 hc         1 QBA       0.025450
     43 H25         13.6860    10.0160    43.5760 hc         1 QBA       0.025450
     44 H23         11.8340    11.1160    42.4040 hc         1 QBA       0.024200
     45 H24         11.3200     9.8230    43.5220 hc         1 QBA       0.024200
     46 H22          9.6590     8.4750    39.1270 ha         1 QBA       0.274500
     47 H20          8.9210     9.0550    36.5680 ha         1 QBA       0.156500
     48 H19          7.9400     9.4750    33.0400 h1         1 QBA       0.036700
     49 H17          8.9610     8.6040    34.2030 h1         1 QBA       0.036700
     50 H18          7.4190     9.3290    34.7320 h1         1 QBA       0.036700
     51 H21         11.3120    13.3830    37.3090 ha         1 QBA       0.110000
     52 H15         12.1570    13.9390    35.4160 h1         1 QBA       0.042950
     53 H16         10.7870    15.0420    35.1700 h1         1 QBA       0.042950
     54 H13         12.4820    15.2200    33.3530 hc         1 QBA       0.040700
     55 H14         10.9390    14.6710    32.7160 hc         1 QBA       0.040700
     56 H12         11.7590    12.3500    32.5340 h1         1 QBA       0.042950
     57 H11         12.8750    13.4560    31.7210 h1         1 QBA       0.042950
     58 H1          12.3890    10.3500    33.0950 ha         1 QBA       0.110000
     59 H3          11.9610     4.0760    36.2730 hc         1 QBA       0.024200
     60 H4          11.3010     5.2710    35.1350 hc         1 QBA       0.024200
     61 H5           9.5930     3.7920    35.9940 hc         1 QBA       0.025450
     62 H6           9.9960     4.3090    37.7070 hc         1 QBA       0.025450
     63 H2          13.2430     8.3580    38.1500 ha         1 QBA       0.274500
     64 H           14.1880    10.8730    37.7340 ha         1 QBA       0.156500
     65 H9          15.5200    14.3040    37.4870 h1         1 QBA       0.036700
     66 H8          14.2410    13.2710    38.1590 h1         1 QBA       0.036700
     67 H10         15.8320    12.5750    37.7440 h1         1 QBA       0.036700
@<TRIPOS>BOND
     1     1     2 1   
     2     2     3 1   
     3     2     4 1   
     4     4     5 1   
     5     4    42 1   
     6     4    43 1   
     7     5     6 1   
     8     5    44 1   
     9     5    45 1   
    10     6     7 2   
    11     6     8 1   
    12     8     9 2   
    13     8    15 1   
    14     9    10 1   
    15     9    46 1   
    16    10    11 ar  
    17    10    16 ar  
    18    11    12 ar  
    19    11    47 1   
    20    12    13 1   
    21    12    18 ar  
    22    13    14 1   
    23    14    48 1   
    24    14    49 1   
    25    14    50 1   
    26    15    16 1   
    27    16    17 ar  
    28    17    18 ar  
    29    17    51 1   
    30    18    19 1   
    31    19    20 1   
    32    20    21 1   
    33    20    52 1   
    34    20    53 1   
    35    21    22 1   
    36    21    54 1   
    37    21    55 1   
    38    22    23 1   
    39    22    56 1   
    40    22    57 1   
    41    23    24 1   
    42    24    25 ar  
    43    24    39 ar  
    44    25    26 ar  
    45    25    58 1   
    46    26    27 1   
    47    26    37 ar  
    48    27    28 1   
    49    28    29 1   
    50    28    36 2   
    51    29    30 1   
    52    29    35 2   
    53    30    31 1   
    54    30    59 1   
    55    30    60 1   
    56    31    32 1   
    57    31    61 1   
    58    31    62 1   
    59    32    33 1   
    60    32    34 1   
    61    36    37 1   
    62    36    63 1   
    63    37    38 ar  
    64    38    39 ar  
    65    38    64 1   
    66    39    40 1   
    67    40    41 1   
    68    41    65 1   
    69    41    66 1   
    70    41    67 1   
@<TRIPOS>SUBSTRUCTURE
     1 QBA         1 TEMP              0 ****  ****    0 ROOT
