@<TRIPOS>MOLECULE
QBA
   67    70     1     0     0
SMALL
bcc


@<TRIPOS>ATOM
      1 O8          13.6630     9.0360    40.6480 o          1 QBA      -0.848800
      2 C28         13.9350     8.7640    41.8380 c          1 QBA       0.934100
      3 O9          14.9730     8.2290    42.2660 o          1 QBA      -0.848800
      4 C27         12.8550     9.1180    42.8780 c3         1 QBA      -0.204400
      5 C26         11.7190     9.9310    42.2800 c3         1 QBA      -0.129400
      6 C25         11.0470     9.2060    41.1400 c          1 QBA       0.625300
      7 O7          10.6750     8.0530    41.2630 o          1 QBA      -0.498600
      8 C23         10.7540     9.9310    39.8940 cc         1 QBA      -0.096600
      9 C24         10.0580     9.4280    38.8390 cd         1 QBA      -0.059200
     10 C20          9.9920    10.3200    37.7330 ca         1 QBA      -0.056300
     11 C19          9.4130    10.1040    36.4710 ca         1 QBA      -0.130500
     12 C17          9.5330    11.0640    35.4980 ca         1 QBA       0.080600
     13 O6           9.0590    10.9510    34.2420 os         1 QBA      -0.322900
     14 C18          8.4050     9.7480    33.8930 c3         1 QBA       0.120700
     15 S1          11.3410    11.5420    39.5730 ss         1 QBA      -0.093000
     16 C21         10.6520    11.5250    37.9890 ca         1 QBA      -0.046600
     17 C22         10.7560    12.5230    37.0180 ca         1 QBA      -0.152500
     18 C16         10.2200    12.2840    35.7700 ca         1 QBA       0.100600
     19 O5          10.2980    13.1280    34.7280 os         1 QBA      -0.331900
     20 C15         11.2300    14.1990    34.7400 c3         1 QBA       0.143900
     21 C14         11.7360    14.4140    33.3270 c3         1 QBA      -0.100400
     22 C13         12.4170    13.2000    32.7150 c3         1 QBA       0.143900
     23 O4          13.5500    12.7940    33.4800 os         1 QBA      -0.331900
     24 C           13.4210    11.7780    34.3620 ca         1 QBA       0.100600
     25 C5          12.8090    10.5820    34.0540 ca         1 QBA      -0.152500
     26 C4          12.7200     9.6020    35.0420 ca         1 QBA      -0.046600
     27 S           11.9760     8.0500    34.9040 ss         1 QBA      -0.093000
     28 C6          12.3500     7.6770    36.5660 cc         1 QBA      -0.096600
     29 C8          11.9580     6.4110    37.2080 c          1 QBA       0.625300
     30 C9          11.4140     5.2920    36.3580 c3         1 QBA      -0.129400
     31 C10         10.3200     4.5070    37.0580 c3         1 QBA      -0.204400
     32 C11          9.0950     5.3680    37.4210 c          1 QBA       0.934100
     33 O2           9.1710     6.5890    37.1580 o          1 QBA      -0.848800
     34 O1           8.1370     4.7750    37.9500 o          1 QBA      -0.848800
     35 O           12.1530     6.2610    38.4000 o          1 QBA      -0.498600
     36 C7          13.0210     8.6910    37.1760 cd         1 QBA      -0.059200
     37 C3          13.2520     9.8040    36.3210 ca         1 QBA      -0.056300
     38 C2          13.9050    11.0110    36.6140 ca         1 QBA      -0.130500
     39 C1          13.9900    11.9890    35.6510 ca         1 QBA       0.080600
     40 O3          14.5630    13.1940    35.8280 os         1 QBA      -0.322900
     41 C12         15.0390    13.5170    37.1170 c3         1 QBA       0.120700
     42 H26         12.4710     8.1930    43.3180 hc         1 QBA       0.025450
     43 H25         13.3070     9.6710    43.7060 hc         1 QBA       0.025450
     44 H23         12.0840    10.9120    41.9740 hc         1 QBA       0.024200
     45 H24         10.9470    10.1160    43.0350 hc         1 QBA       0.024200
     46 H22          9.6320     8.4350    38.8190 ha         1 QBA       0.224500
     47 H20          8.9200     9.1600    36.2820 ha         1 QBA       0.174500
     48 H19          8.1180     9.8430    32.8490 h1         1 QBA       0.036700
     49 H17          9.0630     8.8820    34.0030 h1         1 QBA       0.036700
     50 H18          7.5050     9.5830    34.4920 h1         1 QBA       0.036700
     51 H21         11.2660    13.4490    37.2450 ha         1 QBA       0.128000
     52 H15         12.0670    13.9890    35.4080 h1         1 QBA       0.042950
     53 H16         10.7440    15.1060    35.1120 h1         1 QBA       0.042950
     54 H13         12.4250    15.2610    33.3450 hc         1 QBA       0.040700
     55 H14         10.9110    14.7010    32.6690 hc         1 QBA       0.040700
     56 H12         11.7040    12.3820    32.5960 h1         1 QBA       0.042950
     57 H11         12.7860    13.4530    31.7200 h1         1 QBA       0.042950
     58 H1          12.3990    10.4080    33.0670 ha         1 QBA       0.128000
     59 H3          12.2640     4.6390    36.1270 hc         1 QBA       0.024200
     60 H4          11.0530     5.6610    35.3960 hc         1 QBA       0.024200
     61 H5          10.0010     3.6780    36.4200 hc         1 QBA       0.025450
     62 H6          10.7070     4.0390    37.9680 hc         1 QBA       0.025450
     63 H2          13.3390     8.6570    38.2100 ha         1 QBA       0.224500
     64 H           14.3080    11.1550    37.6080 ha         1 QBA       0.174500
     65 H9          15.4010    14.5410    37.0670 h1         1 QBA       0.036700
     66 H8          14.2470    13.4570    37.8690 h1         1 QBA       0.036700
     67 H10         15.8630    12.8670    37.4250 h1         1 QBA       0.036700
@<TRIPOS>BOND
     1     1     2 1   
     2     2     3 1   
     3     2     4 1   
     4     4     5 1   
     5     4    42 1   
     6     4    43 1   
     7     5     6 1   
     8     5    44 1   
     9     5    45 1   
    10     6     7 2   
    11     6     8 1   
    12     8     9 2   
    13     8    15 1   
    14     9    10 1   
    15     9    46 1   
    16    10    11 ar  
    17    10    16 ar  
    18    11    12 ar  
    19    11    47 1   
    20    12    13 1   
    21    12    18 ar  
    22    13    14 1   
    23    14    48 1   
    24    14    49 1   
    25    14    50 1   
    26    15    16 1   
    27    16    17 ar  
    28    17    18 ar  
    29    17    51 1   
    30    18    19 1   
    31    19    20 1   
    32    20    21 1   
    33    20    52 1   
    34    20    53 1   
    35    21    22 1   
    36    21    54 1   
    37    21    55 1   
    38    22    23 1   
    39    22    56 1   
    40    22    57 1   
    41    23    24 1   
    42    24    25 ar  
    43    24    39 ar  
    44    25    26 ar  
    45    25    58 1   
    46    26    27 1   
    47    26    37 ar  
    48    27    28 1   
    49    28    29 1   
    50    28    36 2   
    51    29    30 1   
    52    29    35 2   
    53    30    31 1   
    54    30    59 1   
    55    30    60 1   
    56    31    32 1   
    57    31    61 1   
    58    31    62 1   
    59    32    33 1   
    60    32    34 1   
    61    36    37 1   
    62    36    63 1   
    63    37    38 ar  
    64    38    39 ar  
    65    38    64 1   
    66    39    40 1   
    67    40    41 1   
    68    41    65 1   
    69    41    66 1   
    70    41    67 1   
@<TRIPOS>SUBSTRUCTURE
     1 QBA         1 TEMP              0 ****  ****    0 ROOT
