@<TRIPOS>MOLECULE
QBB
   35    37     1     0     0
SMALL
No Charge or Current Charge


@<TRIPOS>ATOM
      1 F1          -6.6590    -1.3650    -0.1190 f          1 QBB      -0.172000
      2 C2          -5.4290    -0.8070    -0.0900 ca         1 QBB       0.196000
      3 C3          -5.2950     0.5860    -0.0410 ca         1 QBB      -0.162500
      4 C4          -4.0160     1.1680    -0.0110 ca         1 QBB      -0.044500
      5 C5          -2.8530     0.3610    -0.0290 ca         1 QBB      -0.175600
      6 C6          -3.0080    -1.0490    -0.0780 ca         1 QBB      -0.044500
      7 C7          -4.2910    -1.6240    -0.1080 ca         1 QBB      -0.162500
      8 C8          -1.4870     1.0250     0.0050 c          1 QBB       0.621700
      9 O9          -1.3800     2.2460     0.0480 o          1 QBB      -0.576100
     10 N10         -0.3940     0.1640    -0.0130 ns         1 QBB      -0.144000
     11 C11          1.0110     0.3880     0.0010 ca         1 QBB      -0.025000
     12 C12          1.6030     1.6700     0.0030 ca         1 QBB      -0.117000
     13 C13          3.0020     1.8070     0.0180 ca         1 QBB      -0.085000
     14 C14          3.8300     0.6710     0.0330 ca         1 QBB      -0.096300
     15 C15          5.3530     0.8380     0.0270 c6         1 QBB      -0.067100
     16 C16          6.1120    -0.4720     0.3420 c6         1 QBB       0.149800
     17 N17          5.5140    -1.6080    -0.3920 n7         1 QBB      -0.842400
     18 C20          4.1260    -1.8780     0.0540 c6         1 QBB       0.194100
     19 C21          3.2490    -0.6160     0.0230 ca         1 QBB      -0.089300
     20 C22          1.8460    -0.7450     0.0110 ca         1 QBB      -0.157000
     21 H3          -6.1820     1.2140    -0.0270 ha         1 QBB       0.138000
     22 H4          -3.9340     2.2530     0.0270 ha         1 QBB       0.130000
     23 H6          -2.1490    -1.7160    -0.0940 ha         1 QBB       0.130000
     24 H7          -4.4040    -2.7040    -0.1460 ha         1 QBB       0.138000
     25 HN10        -0.6430    -0.8150    -0.0430 hn         1 QBB       0.153000
     26 H12          1.0030     2.5740    -0.0100 ha         1 QBB       0.143000
     27 H13          3.4430     2.8010     0.0150 ha         1 QBB       0.114000
     28 H15          5.6640     1.2030    -0.9620 hc         1 QBB       0.052700
     29 H15A         5.6530     1.6130     0.7460 hc         1 QBB       0.052700
     30 H16          7.1720    -0.3580     0.0660 h1         1 QBB       0.056200
     31 H16A         6.0730    -0.6710     1.4240 h1         1 QBB       0.056200
     32 HN17         5.4820    -1.3560    -1.3870 hn         1 QBB       0.408000
     33 H20          3.6780    -2.6530    -0.5870 h1         1 QBB       0.059700
     34 H20A         4.1390    -2.2710     1.0820 h1         1 QBB       0.059700
     35 H22          1.4030    -1.7390     0.0110 ha         1 QBB       0.108000
@<TRIPOS>BOND
     1     1     2 1   
     2     2     3 ar  
     3     2     7 ar  
     4     3     4 ar  
     5     3    21 1   
     6     4     5 ar  
     7     4    22 1   
     8     5     6 ar  
     9     5     8 1   
    10     6     7 ar  
    11     6    23 1   
    12     7    24 1   
    13     8     9 2   
    14     8    10 1   
    15    10    11 1   
    16    10    25 1   
    17    11    12 ar  
    18    11    20 ar  
    19    12    13 ar  
    20    12    26 1   
    21    13    14 ar  
    22    13    27 1   
    23    14    15 1   
    24    14    19 ar  
    25    15    16 1   
    26    15    28 1   
    27    15    29 1   
    28    16    17 1   
    29    16    30 1   
    30    16    31 1   
    31    17    18 1   
    32    17    32 1   
    33    18    19 1   
    34    18    33 1   
    35    18    34 1   
    36    19    20 ar  
    37    20    35 1   
@<TRIPOS>SUBSTRUCTURE
     1 QBB         1 TEMP              0 ****  ****    0 ROOT
