@<TRIPOS>MOLECULE
QBB
   35    37     1     0     0
SMALL
abcg2


@<TRIPOS>ATOM
      1 F1          -6.5900    -1.1880    -0.0410 f          1 QBB      -0.172000
      2 C2          -5.3440    -0.7010    -0.0340 ca         1 QBB       0.196000
      3 C3          -5.0700     0.4430    -0.7620 ca         1 QBB      -0.162500
      4 C4          -3.7800     0.9450    -0.7430 ca         1 QBB      -0.044500
      5 C5          -2.7730     0.3020    -0.0260 ca         1 QBB      -0.175600
      6 C6          -3.0860    -0.8440     0.7030 ca         1 QBB      -0.044500
      7 C7          -4.3760    -1.3530     0.7060 ca         1 QBB      -0.162500
      8 C8          -1.4070     0.9040    -0.0420 c          1 QBB       0.621700
      9 O9          -1.2470     2.0990    -0.2220 o          1 QBB      -0.576100
     10 N10         -0.3920     0.0230     0.1390 ns         1 QBB      -0.144000
     11 C11          0.9840     0.2940     0.1600 ca         1 QBB      -0.025000
     12 C12          1.5270     1.5260     0.5250 ca         1 QBB      -0.117000
     13 C13          2.9030     1.6820     0.5310 ca         1 QBB      -0.085000
     14 C14          3.7720     0.6490     0.1900 ca         1 QBB      -0.096300
     15 C15          5.2630     0.8590     0.1840 c6         1 QBB      -0.067100
     16 C16          6.0190    -0.4660     0.1810 c6         1 QBB       0.149800
     17 N17          5.4950    -1.4060    -0.7960 n7         1 QBB      -0.842400
     18 C20          4.1200    -1.7550    -0.5020 c6         1 QBB       0.194100
     19 C21          3.2230    -0.5850    -0.1610 ca         1 QBB      -0.089300
     20 C22          1.8440    -0.7480    -0.1720 ca         1 QBB      -0.157000
     21 H3          -5.8480     0.9320    -1.3320 ha         1 QBB       0.138000
     22 H4          -3.5560     1.8430    -1.3030 ha         1 QBB       0.130000
     23 H6          -2.3390    -1.3450     1.3040 ha         1 QBB       0.130000
     24 H7          -4.6220    -2.2360     1.2780 ha         1 QBB       0.138000
     25 HN10        -0.6300    -0.9570     0.1030 hn         1 QBB       0.153000
     26 H12          0.8980     2.3550     0.8110 ha         1 QBB       0.143000
     27 H13          3.3130     2.6420     0.8220 ha         1 QBB       0.114000
     28 H15          5.5450     1.4310    -0.7070 hc         1 QBB       0.052700
     29 H15A         5.5630     1.4680     1.0410 hc         1 QBB       0.052700
     30 H16          7.0780    -0.2930    -0.0180 h1         1 QBB       0.056200
     31 H16A         5.9560    -0.9350     1.1680 h1         1 QBB       0.056200
     32 HN17         5.5400    -0.9840    -1.7160 hn         1 QBB       0.408000
     33 H20          3.7070    -2.3010    -1.3530 h1         1 QBB       0.059700
     34 H20A         4.1110    -2.4560     0.3400 h1         1 QBB       0.059700
     35 H22          1.4290    -1.7110    -0.4560 ha         1 QBB       0.108000
@<TRIPOS>BOND
     1     1     2 1   
     2     2     3 ar  
     3     2     7 ar  
     4     3     4 ar  
     5     3    21 1   
     6     4     5 ar  
     7     4    22 1   
     8     5     6 ar  
     9     5     8 1   
    10     6     7 ar  
    11     6    23 1   
    12     7    24 1   
    13     8     9 2   
    14     8    10 1   
    15    10    11 1   
    16    10    25 1   
    17    11    12 ar  
    18    11    20 ar  
    19    12    13 ar  
    20    12    26 1   
    21    13    14 ar  
    22    13    27 1   
    23    14    15 1   
    24    14    19 ar  
    25    15    16 1   
    26    15    28 1   
    27    15    29 1   
    28    16    17 1   
    29    16    30 1   
    30    16    31 1   
    31    17    18 1   
    32    17    32 1   
    33    18    19 1   
    34    18    33 1   
    35    18    34 1   
    36    19    20 ar  
    37    20    35 1   
@<TRIPOS>SUBSTRUCTURE
     1 QBB         1 TEMP              0 ****  ****    0 ROOT
