@<TRIPOS>MOLECULE
QBC
   19    20     1     0     0
SMALL
abcg2


@<TRIPOS>ATOM
      1 C02         42.4290    18.2120    32.8450 ca         1 QBC       0.374000
      2 C03         41.4120    17.4850    33.4520 ca         1 QBC      -0.278000
      3 C04         40.4080    16.9100    32.6710 ca         1 QBC       0.397900
      4 C06         41.3100    17.6980    30.7270 ca         1 QBC       0.307000
      5 C07         41.2490    17.7990    29.3160 ca         1 QBC      -0.086000
      6 C08         42.2060    18.5050    28.6380 ca         1 QBC       0.139000
      7 C10         43.2650    19.1470    29.3030 ca         1 QBC      -0.118000
      8 C11         43.3420    19.0570    30.6700 ca         1 QBC      -0.074000
      9 C12         42.3830    18.3350    31.4160 ca         1 QBC      -0.134000
     10 N01         43.3990    18.8170    33.5790 nv         1 QBC      -1.100000
     11 N05         40.3280    16.9910    31.3540 nb         1 QBC      -0.696000
     12 CL09        42.1210    18.6250    26.8930 cl         1 QBC      -0.208000
     13 H031        41.3990    17.3590    34.5270 ha         1 QBC       0.121000
     14 H041        39.6240    16.3430    33.1650 h4         1 QBC       0.017100
     15 H071        40.4350    17.3120    28.7970 ha         1 QBC       0.147000
     16 H101        44.0030    19.7020    28.7410 ha         1 QBC       0.130000
     17 H111        44.1570    19.5620    31.1700 ha         1 QBC       0.108000
     18 H012        43.4810    18.5640    34.5510 hn         1 QBC       0.477500
     19 H011        44.2570    19.1070    33.1420 hn         1 QBC       0.477500
@<TRIPOS>BOND
     1     1     2 ar  
     2     1     9 ar  
     3     1    10 1   
     4     2     3 ar  
     5     2    13 1   
     6     3    11 ar  
     7     3    14 1   
     8     4     5 ar  
     9     4     9 ar  
    10     4    11 ar  
    11     5     6 ar  
    12     5    15 1   
    13     6     7 ar  
    14     6    12 1   
    15     7     8 ar  
    16     7    16 1   
    17     8     9 ar  
    18     8    17 1   
    19    10    18 1   
    20    10    19 1   
@<TRIPOS>SUBSTRUCTURE
     1 QBC         1 TEMP              0 ****  ****    0 ROOT
