@<TRIPOS>MOLECULE
QBC
   19    20     1     0     0
SMALL
No Charge or Current Charge


@<TRIPOS>ATOM
      1 C02         42.4110    18.2170    32.8170 ca         1 QBC       0.374000
      2 C03         41.4170    17.4950    33.4660 ca         1 QBC      -0.278000
      3 C04         40.4060    16.9010    32.7100 ca         1 QBC       0.397900
      4 C06         41.3080    17.6970    30.7190 ca         1 QBC       0.307000
      5 C07         41.2470    17.7990    29.3180 ca         1 QBC      -0.086000
      6 C08         42.2170    18.5170    28.6060 ca         1 QBC       0.139000
      7 C10         43.2660    19.1480    29.2870 ca         1 QBC      -0.118000
      8 C11         43.3460    19.0600    30.6850 ca         1 QBC      -0.074000
      9 C12         42.3700    18.3340    31.4110 ca         1 QBC      -0.134000
     10 N01         43.3940    18.7860    33.5820 nv         1 QBC      -1.100000
     11 N05         40.3490    16.9960    31.3660 nb         1 QBC      -0.696000
     12 Cl09        42.1170    18.6280    26.8530 cl         1 QBC      -0.208000
     13 H031        41.4140    17.3860    34.5460 ha         1 QBC       0.121000
     14 H041        39.6140    16.3280    33.1910 h4         1 QBC       0.017100
     15 H071        40.4380    17.3140    28.7810 ha         1 QBC       0.147000
     16 H101        44.0160    19.7060    28.7310 ha         1 QBC       0.130000
     17 H111        44.1680    19.5620    31.1900 ha         1 QBC       0.108000
     18 H012        43.4690    18.5230    34.5630 hn         1 QBC       0.477500
     19 H011        44.2390    19.1330    33.1360 hn         1 QBC       0.477500
@<TRIPOS>BOND
     1     1     2 ar  
     2     1     9 ar  
     3     1    10 1   
     4     2     3 ar  
     5     2    13 1   
     6     3    11 ar  
     7     3    14 1   
     8     4     5 ar  
     9     4     9 ar  
    10     4    11 ar  
    11     5     6 ar  
    12     5    15 1   
    13     6     7 ar  
    14     6    12 1   
    15     7     8 ar  
    16     7    16 1   
    17     8     9 ar  
    18     8    17 1   
    19    10    18 1   
    20    10    19 1   
@<TRIPOS>SUBSTRUCTURE
     1 QBC         1 TEMP              0 ****  ****    0 ROOT
