@<TRIPOS>MOLECULE
QBD
   65    68     1     0     0
SMALL
No Charge or Current Charge


@<TRIPOS>ATOM
      1 O5         -23.4860   -16.3110    -2.5480 o          1 QBD      -0.743000
      2 C23        -22.3040   -16.0650    -2.3660 c          1 QBD       0.716000
      3 O6         -21.3950   -16.8030    -2.7070 o          1 QBD      -0.743000
      4 C22        -21.9410   -14.7750    -1.6090 c3         1 QBD      -0.195400
      5 C21        -21.9410   -15.0000    -0.0690 c3         1 QBD      -0.146400
      6 C20        -20.7990   -15.9310     0.4020 c          1 QBD       0.620300
      7 O4         -19.6690   -15.4740     0.5360 o          1 QBD      -0.563100
      8 C19        -21.0890   -17.3530     0.7180 cc         1 QBD      -0.174600
      9 S1         -19.8180   -18.4350     1.3480 ss         1 QBD       0.236400
     10 C24        -22.3010   -18.0160     0.5830 cd         1 QBD      -0.123200
     11 C25        -22.2680   -19.4000     0.9840 ca         1 QBD      -0.063800
     12 C18        -21.0150   -19.7600     1.4180 ca         1 QBD      -0.196000
     13 C17        -20.7450   -21.0700     1.8340 ca         1 QBD      -0.026000
     14 C26        -23.3210   -20.3200     0.9520 ca         1 QBD      -0.170000
     15 C27        -23.0760   -21.6570     1.3560 ca         1 QBD       0.117100
     16 O7         -24.0790   -22.6110     1.3220 os         1 QBD      -0.357100
     17 C28        -25.3840   -22.3380     0.7840 c3         1 QBD       0.153900
     18 C          -21.7730   -22.0420     1.7870 ca         1 QBD      -0.108300
     19 C1         -21.4520   -23.4920     2.1810 c3         1 QBD      -0.007100
     20 C2         -20.2270   -24.1140     1.4570 c3         1 QBD      -0.077400
     21 C3         -20.3770   -24.3160    -0.0760 c3         1 QBD      -0.016100
     22 C4         -20.5450   -23.0210    -0.8700 ca         1 QBD      -0.006300
     23 C16        -19.4840   -22.1050    -1.0480 ca         1 QBD      -0.124800
     24 C9         -19.6890   -20.9050    -1.7040 ca         1 QBD      -0.131000
     25 C8         -20.9460   -20.5580    -2.2210 ca         1 QBD      -0.156000
     26 C6         -22.0150   -21.4690    -2.0800 ca         1 QBD       0.135100
     27 O          -23.2860   -21.1990    -2.5480 os         1 QBD      -0.372100
     28 C7         -23.6540   -19.8980    -3.0380 c3         1 QBD       0.136900
     29 C5         -21.8040   -22.6960    -1.4210 ca         1 QBD      -0.159000
     30 C15        -18.1210   -22.2490    -0.5770 cc         1 QBD      -0.104200
     31 C10        -17.3430   -21.1380    -0.8930 cd         1 QBD      -0.178600
     32 S          -18.2460   -19.8750    -1.7760 ss         1 QBD       0.192400
     33 C11        -15.9020   -20.9560    -0.5610 c          1 QBD       0.625300
     34 O1         -15.3190   -19.9220    -0.8720 o          1 QBD      -0.564100
     35 C12        -15.1120   -22.0750     0.1570 c3         1 QBD      -0.146400
     36 C13        -14.9550   -21.8150     1.6840 c3         1 QBD      -0.194400
     37 C14        -16.3110   -21.8900     2.4080 c          1 QBD       0.711000
     38 O2         -16.6990   -22.9830     2.7870 o          1 QBD      -0.740000
     39 O3         -16.9560   -20.8610     2.5230 o          1 QBD      -0.740000
     40 H2         -20.9290   -14.4410    -1.8720 hc         1 QBD       0.023200
     41 H3         -22.7100   -14.0120    -1.7840 hc         1 QBD       0.023200
     42 H4         -21.8020   -14.0220     0.4070 hc         1 QBD       0.036200
     43 H5         -22.9190   -15.3990     0.2160 hc         1 QBD       0.036200
     44 H6         -23.2060   -17.5570     0.1950 ha         1 QBD       0.216000
     45 H7         -19.7410   -21.3330     2.1620 ha         1 QBD       0.174000
     46 H8         -24.2960   -19.9950     0.6040 ha         1 QBD       0.107000
     47 H9         -26.0090   -23.2380     0.8300 h1         1 QBD       0.027700
     48 H10        -25.8850   -21.5470     1.3560 h1         1 QBD       0.027700
     49 H11        -25.3130   -22.0250    -0.2660 h1         1 QBD       0.027700
     50 H12        -22.3080   -24.1560     2.0180 hc         1 QBD       0.031700
     51 H13        -21.2600   -23.5240     3.2600 hc         1 QBD       0.031700
     52 H14        -20.0370   -25.0970     1.9050 hc         1 QBD       0.058200
     53 H15        -19.3320   -23.5200     1.6680 hc         1 QBD       0.058200
     54 H16        -21.2290   -24.9830    -0.2560 hc         1 QBD       0.025200
     55 H17        -19.4980   -24.8570    -0.4450 hc         1 QBD       0.025200
     56 H18        -21.0740   -19.5970    -2.7120 ha         1 QBD       0.175000
     57 H19        -24.7140   -19.8820    -3.3190 h1         1 QBD       0.047700
     58 H20        -23.4950   -19.1350    -2.2660 h1         1 QBD       0.047700
     59 H21        -23.0650   -19.6300    -3.9250 h1         1 QBD       0.047700
     60 H22        -22.6400   -23.3780    -1.2970 ha         1 QBD       0.103000
     61 H23        -17.7560   -23.1170    -0.0370 ha         1 QBD       0.216000
     62 H24        -15.5950   -23.0470     0.0270 hc         1 QBD       0.034200
     63 H25        -14.1050   -22.1170    -0.2760 hc         1 QBD       0.034200
     64 H26        -14.2950   -22.6140     2.0440 hc         1 QBD       0.023700
     65 H27        -14.5190   -20.8130     1.7810 hc         1 QBD       0.023700
@<TRIPOS>BOND
     1     1     2 1   
     2     2     3 1   
     3     2     4 1   
     4     4     5 1   
     5     4    40 1   
     6     4    41 1   
     7     5     6 1   
     8     5    42 1   
     9     5    43 1   
    10     6     7 2   
    11     6     8 1   
    12     8     9 1   
    13     8    10 2   
    14     9    12 1   
    15    10    11 1   
    16    10    44 1   
    17    11    12 ar  
    18    11    14 ar  
    19    12    13 ar  
    20    13    18 ar  
    21    13    45 1   
    22    14    15 ar  
    23    14    46 1   
    24    15    16 1   
    25    15    18 ar  
    26    16    17 1   
    27    17    47 1   
    28    17    48 1   
    29    17    49 1   
    30    18    19 1   
    31    19    20 1   
    32    19    50 1   
    33    19    51 1   
    34    20    21 1   
    35    20    52 1   
    36    20    53 1   
    37    21    22 1   
    38    21    54 1   
    39    21    55 1   
    40    22    23 ar  
    41    22    29 ar  
    42    23    24 ar  
    43    23    30 1   
    44    24    25 ar  
    45    24    32 1   
    46    25    26 ar  
    47    25    56 1   
    48    26    27 1   
    49    26    29 ar  
    50    27    28 1   
    51    28    57 1   
    52    28    58 1   
    53    28    59 1   
    54    29    60 1   
    55    30    31 2   
    56    30    61 1   
    57    31    32 1   
    58    31    33 1   
    59    33    34 2   
    60    33    35 1   
    61    35    36 1   
    62    35    62 1   
    63    35    63 1   
    64    36    37 1   
    65    36    64 1   
    66    36    65 1   
    67    37    38 1   
    68    37    39 1   
@<TRIPOS>SUBSTRUCTURE
     1 QBD         1 TEMP              0 ****  ****    0 ROOT
