@<TRIPOS>MOLECULE
QBD
   65    68     1     0     0
SMALL
bcc


@<TRIPOS>ATOM
      1 O5         -22.8840   -16.7900    -2.1340 o          1 QBD      -0.848300
      2 C23        -21.6800   -16.4670    -2.2070 c          1 QBD       0.926600
      3 O6         -20.7650   -17.1030    -2.7670 o          1 QBD      -0.848300
      4 C22        -21.3010   -15.1360    -1.5260 c3         1 QBD      -0.195400
      5 C21        -21.5760   -15.1390    -0.0130 c3         1 QBD      -0.146400
      6 C20        -20.6140   -16.0510     0.7070 c          1 QBD       0.620300
      7 O4         -19.4890   -15.6850     0.9990 o          1 QBD      -0.563100
      8 C19        -21.0250   -17.4210     1.0070 cc         1 QBD      -0.174600
      9 S1         -19.8230   -18.4950     1.6670 ss         1 QBD       0.109500
     10 C24        -22.2290   -18.0290     0.8130 cd         1 QBD      -0.073200
     11 C25        -22.2130   -19.4030     1.1800 ca         1 QBD      -0.063800
     12 C18        -20.9570   -19.8040     1.6570 ca         1 QBD      -0.069100
     13 C17        -20.7200   -21.1330     2.0000 ca         1 QBD      -0.044000
     14 C26        -23.2460   -20.3440     1.0680 ca         1 QBD      -0.188000
     15 C27        -22.9970   -21.6610     1.3920 ca         1 QBD       0.117100
     16 O7         -23.9230   -22.6360     1.2820 os         1 QBD      -0.333900
     17 C28        -25.1890   -22.3080     0.7540 c3         1 QBD       0.130700
     18 C          -21.7170   -22.0750     1.8470 ca         1 QBD      -0.108300
     19 C1         -21.4200   -23.5250     2.1470 c3         1 QBD      -0.007100
     20 C2         -20.2490   -24.1180     1.3580 c3         1 QBD      -0.077400
     21 C3         -20.4870   -24.3040    -0.1460 c3         1 QBD      -0.016100
     22 C4         -20.7080   -23.0380    -0.9250 ca         1 QBD      -0.006300
     23 C16        -19.6690   -22.0970    -1.1030 ca         1 QBD      -0.124800
     24 C9         -19.9450   -20.8910    -1.7690 ca         1 QBD      -0.004100
     25 C8         -21.2010   -20.5850    -2.2910 ca         1 QBD      -0.174000
     26 C6         -22.1970   -21.5320    -2.1310 ca         1 QBD       0.135100
     27 O          -23.4590   -21.3740    -2.5590 os         1 QBD      -0.348900
     28 C7         -23.7990   -20.1760    -3.2310 c3         1 QBD       0.113700
     29 C5         -21.9390   -22.7470    -1.4620 ca         1 QBD      -0.177000
     30 C15        -18.3170   -22.1590    -0.6660 cc         1 QBD      -0.054200
     31 C10        -17.6050   -21.0390    -0.9720 cd         1 QBD      -0.178600
     32 S          -18.5600   -19.8590    -1.8270 ss         1 QBD       0.065500
     33 C11        -16.2240   -20.6880    -0.6630 c          1 QBD       0.625300
     34 O1         -15.7950   -19.5980    -1.0000 o          1 QBD      -0.564100
     35 C12        -15.3680   -21.6670     0.1000 c3         1 QBD      -0.146400
     36 C13        -15.2980   -21.3040     1.5920 c3         1 QBD      -0.194400
     37 C14        -16.6610   -21.4960     2.2820 c          1 QBD       0.921600
     38 O2         -17.0300   -22.6800     2.4360 o          1 QBD      -0.845300
     39 O3         -17.2910   -20.4670     2.6010 o          1 QBD      -0.845300
     40 H2         -20.2540   -14.8860    -1.7040 hc         1 QBD       0.023200
     41 H3         -21.9000   -14.3320    -1.9620 hc         1 QBD       0.023200
     42 H4         -21.4330   -14.1320     0.3840 hc         1 QBD       0.036200
     43 H5         -22.6130   -15.4170     0.1690 hc         1 QBD       0.036200
     44 H6         -23.0910   -17.5360     0.3880 ha         1 QBD       0.166000
     45 H7         -19.7410   -21.4320     2.3520 ha         1 QBD       0.192000
     46 H8         -24.2090   -20.0190     0.6980 ha         1 QBD       0.125000
     47 H9         -25.7630   -23.2310     0.7320 h1         1 QBD       0.027700
     48 H10        -25.7180   -21.5810     1.3770 h1         1 QBD       0.027700
     49 H11        -25.1140   -21.9130    -0.2620 h1         1 QBD       0.027700
     50 H12        -22.3020   -24.1420     1.9870 hc         1 QBD       0.031700
     51 H13        -21.1820   -23.6150     3.2110 hc         1 QBD       0.031700
     52 H14        -20.0440   -25.1080     1.7740 hc         1 QBD       0.058200
     53 H15        -19.3440   -23.5350     1.5360 hc         1 QBD       0.058200
     54 H16        -21.3490   -24.9610    -0.2870 hc         1 QBD       0.025200
     55 H17        -19.6250   -24.8360    -0.5590 hc         1 QBD       0.025200
     56 H18        -21.3660   -19.6290    -2.7700 ha         1 QBD       0.193000
     57 H19        -24.8620   -20.2400    -3.4540 h1         1 QBD       0.047700
     58 H20        -23.6160   -19.2900    -2.6190 h1         1 QBD       0.047700
     59 H21        -23.2480   -20.0720    -4.1700 h1         1 QBD       0.047700
     60 H22        -22.7550   -23.4500    -1.3430 ha         1 QBD       0.121000
     61 H23        -17.8950   -22.9950    -0.1270 ha         1 QBD       0.166000
     62 H24        -15.7270   -22.6910    -0.0110 hc         1 QBD       0.034200
     63 H25        -14.3650   -21.6290    -0.3300 hc         1 QBD       0.034200
     64 H26        -14.5540   -21.9570     2.0540 hc         1 QBD       0.023700
     65 H27        -14.9400   -20.2780     1.6960 hc         1 QBD       0.023700
@<TRIPOS>BOND
     1     1     2 1   
     2     2     3 1   
     3     2     4 1   
     4     4     5 1   
     5     4    40 1   
     6     4    41 1   
     7     5     6 1   
     8     5    42 1   
     9     5    43 1   
    10     6     7 2   
    11     6     8 1   
    12     8     9 1   
    13     8    10 2   
    14     9    12 1   
    15    10    11 1   
    16    10    44 1   
    17    11    12 ar  
    18    11    14 ar  
    19    12    13 ar  
    20    13    18 ar  
    21    13    45 1   
    22    14    15 ar  
    23    14    46 1   
    24    15    16 1   
    25    15    18 ar  
    26    16    17 1   
    27    17    47 1   
    28    17    48 1   
    29    17    49 1   
    30    18    19 1   
    31    19    20 1   
    32    19    50 1   
    33    19    51 1   
    34    20    21 1   
    35    20    52 1   
    36    20    53 1   
    37    21    22 1   
    38    21    54 1   
    39    21    55 1   
    40    22    23 ar  
    41    22    29 ar  
    42    23    24 ar  
    43    23    30 1   
    44    24    25 ar  
    45    24    32 1   
    46    25    26 ar  
    47    25    56 1   
    48    26    27 1   
    49    26    29 ar  
    50    27    28 1   
    51    28    57 1   
    52    28    58 1   
    53    28    59 1   
    54    29    60 1   
    55    30    31 2   
    56    30    61 1   
    57    31    32 1   
    58    31    33 1   
    59    33    34 2   
    60    33    35 1   
    61    35    36 1   
    62    35    62 1   
    63    35    63 1   
    64    36    37 1   
    65    36    64 1   
    66    36    65 1   
    67    37    38 1   
    68    37    39 1   
@<TRIPOS>SUBSTRUCTURE
     1 QBD         1 TEMP              0 ****  ****    0 ROOT
