@<TRIPOS>MOLECULE
QBE
   49    52     1     0     0
SMALL
No Charge or Current Charge


@<TRIPOS>ATOM
      1 C11         -4.4470   -42.7990     3.6060 cc         1 QBE       0.513500
      2 C2          -1.5710   -47.6780     3.6890 ca         1 QBE      -0.010000
      3 C3          -2.3290   -47.9690     6.1290 c          1 QBE       0.613100
      4 C4          -3.8440   -47.9740     5.8360 c3         1 QBE      -0.154400
      5 C5          -4.5550   -46.6970     6.3460 c3         1 QBE      -0.086100
      6 C6          -2.4030   -46.6200     3.2690 ca         1 QBE      -0.139000
      7 C7          -0.9140   -48.0330     1.3700 ca         1 QBE      -0.072000
      8 C8          -1.7660   -46.9930     0.9660 ca         1 QBE      -0.174000
      9 N           -1.4400   -48.0190     5.0630 ns         1 QBE      -0.176000
     10 O           -1.9140   -48.0420     7.2800 o          1 QBE      -0.593100
     11 N1          -3.3390   -45.2450     1.4330 nu         1 QBE      -0.924900
     12 C1          -0.8030   -48.3760     2.7300 ca         1 QBE      -0.112300
     13 N6          -2.9660   -42.8480     6.8580 n1         1 QBE      -0.474000
     14 C19         -3.6120   -42.5670     5.9270 ch         1 QBE       0.340700
     15 C12         -4.4130   -42.2020     4.8270 cd         1 QBE      -0.256300
     16 C13         -5.3550   -41.1370     4.7640 cd         1 QBE       0.460500
     17 N3          -5.9800   -41.0220     3.5920 nc         1 QBE      -0.614100
     18 N4          -5.3820   -42.0740     2.9160 na         1 QBE       0.038900
     19 N2          -3.7080   -43.8700     3.2060 nc         1 QBE      -0.769000
     20 C14         -5.6610   -42.4390     1.5960 cc         1 QBE       0.440000
     21 N5          -6.5880   -41.7350     0.8640 nu         1 QBE      -0.927200
     22 C15         -7.0140   -41.9190    -0.4940 cx         1 QBE       0.148500
     23 C17         -8.0230   -43.0070    -0.7590 cx         1 QBE      -0.126900
     24 C16         -8.4400   -41.5590    -0.8270 cx         1 QBE      -0.126900
     25 C18         -4.9430   -43.5260     1.1400 cd         1 QBE      -0.389000
     26 C10         -4.0040   -44.2030     1.9750 cd         1 QBE       0.701900
     27 C9          -2.5070   -46.2670     1.9100 ca         1 QBE       0.310000
     28 H1          -4.0390   -48.0940     4.7660 hc         1 QBE       0.058700
     29 H2          -4.2840   -48.8290     6.3620 hc         1 QBE       0.058700
     30 H3          -5.6220   -46.7250     6.0910 hc         1 QBE       0.045700
     31 H4          -4.4690   -46.6170     7.4370 hc         1 QBE       0.045700
     32 H5          -4.1240   -45.7910     5.9070 hc         1 QBE       0.045700
     33 H6          -2.9660   -46.0700     4.0070 ha         1 QBE       0.169000
     34 H7          -0.3390   -48.5720     0.6200 ha         1 QBE       0.115000
     35 H8          -1.8370   -46.7460    -0.0900 ha         1 QBE       0.110000
     36 H9          -0.4880   -48.2170     5.3390 hn         1 QBE       0.157000
     37 H10          0.9260   -49.1430     3.8070 hc         1 QBE       0.044367
     38 H11         -0.4140   -50.2980     3.6760 hc         1 QBE       0.044367
     39 H12          0.6180   -49.9750     2.2790 hc         1 QBE       0.044367
     40 H13         -3.4700   -45.2630     0.4280 hn         1 QBE       0.498000
     41 H15         -5.6020   -40.4370     5.5530 h4         1 QBE       0.055800
     42 H16         -6.9750   -40.9690     1.4240 hn         1 QBE       0.535000
     43 H17         -6.2500   -41.7390    -1.2540 h1         1 QBE       0.091700
     44 H18         -8.3710   -43.5980     0.0850 hc         1 QBE       0.084700
     45 H19         -7.9360   -43.5560    -1.6930 hc         1 QBE       0.084700
     46 H20         -8.6330   -41.1320    -1.8080 hc         1 QBE       0.084700
     47 H21         -9.0750   -41.1770    -0.0320 hc         1 QBE       0.084700
     48 H22         -5.1050   -43.8740     0.1300 ha         1 QBE       0.140000
     49 C            0.1320   -49.5090     3.1450 c3         1 QBE      -0.040800
@<TRIPOS>BOND
     1     1    15 2   
     2     1    18 1   
     3     1    19 1   
     4     2     6 ar  
     5     2     9 1   
     6     2    12 ar  
     7     3     4 1   
     8     3     9 1   
     9     3    10 2   
    10     4     5 1   
    11     4    28 1   
    12     4    29 1   
    13     5    30 1   
    14     5    31 1   
    15     5    32 1   
    16     6    27 ar  
    17     6    33 1   
    18     7     8 ar  
    19     7    12 ar  
    20     7    34 1   
    21     8    27 ar  
    22     8    35 1   
    23     9    36 1   
    24    11    26 1   
    25    11    27 1   
    26    11    40 1   
    27    12    49 1   
    28    13    14 3   
    29    14    15 1   
    30    15    16 1   
    31    16    17 2   
    32    16    41 1   
    33    17    18 1   
    34    18    20 1   
    35    19    26 2   
    36    20    21 1   
    37    20    25 2   
    38    21    22 1   
    39    21    42 1   
    40    22    23 1   
    41    22    24 1   
    42    22    43 1   
    43    23    24 1   
    44    23    44 1   
    45    23    45 1   
    46    24    46 1   
    47    24    47 1   
    48    25    26 1   
    49    25    48 1   
    50    37    49 1   
    51    38    49 1   
    52    39    49 1   
@<TRIPOS>SUBSTRUCTURE
     1 QBE         1 TEMP              0 ****  ****    0 ROOT
