@<TRIPOS>MOLECULE
QBE
   49    52     1     0     0
SMALL
abcg2


@<TRIPOS>ATOM
      1 C11         -4.6180   -42.9970     3.6980 cc         1 QBE       0.513500
      2 C2          -1.5020   -47.4490     3.6520 ca         1 QBE      -0.010000
      3 C3          -2.0450   -47.6640     6.0700 c          1 QBE       0.613100
      4 C4          -3.5080   -47.9120     5.7740 c3         1 QBE      -0.154400
      5 C5          -4.3940   -46.7400     6.1930 c3         1 QBE      -0.086100
      6 C6          -2.3160   -46.4100     3.2160 ca         1 QBE      -0.139000
      7 C7          -1.3080   -48.2530     1.4260 ca         1 QBE      -0.072000
      8 C8          -2.1460   -47.2490     0.9790 ca         1 QBE      -0.174000
      9 N           -1.1870   -47.5330     5.0270 ns         1 QBE      -0.176000
     10 O           -1.6380   -47.6100     7.2210 o          1 QBE      -0.593100
     11 N1          -3.5140   -45.3390     1.3390 nu         1 QBE      -0.924900
     12 C1          -0.9680   -48.3880     2.7690 ca         1 QBE      -0.112300
     13 N6          -3.3370   -43.2030     7.0280 n1         1 QBE      -0.474000
     14 C19         -3.9290   -42.8520     6.1000 ch         1 QBE       0.340700
     15 C12         -4.6520   -42.4260     4.9760 cd         1 QBE      -0.256300
     16 C13         -5.5470   -41.3400     4.8690 cd         1 QBE       0.460500
     17 N3          -6.0390   -41.2190     3.6620 nc         1 QBE      -0.614100
     18 N4          -5.4710   -42.2240     2.9620 na         1 QBE       0.038900
     19 N2          -3.9590   -44.0330     3.2040 nc         1 QBE      -0.769000
     20 C14         -5.6990   -42.4650     1.6350 cc         1 QBE       0.440000
     21 N5          -6.5580   -41.6590     1.0100 nu         1 QBE      -0.927200
     22 C15         -6.8140   -41.7540    -0.3890 cx         1 QBE       0.148500
     23 C17         -7.6330   -42.9040    -0.8950 cx         1 QBE      -0.126900
     24 C16         -8.2160   -41.5270    -0.8480 cx         1 QBE      -0.126900
     25 C18         -5.0140   -43.5290     1.0920 cd         1 QBE      -0.389000
     26 C10         -4.1570   -44.2940     1.9190 cd         1 QBE       0.701900
     27 C9          -2.6690   -46.3100     1.8720 ca         1 QBE       0.310000
     28 H1          -3.6820   -48.1570     4.7280 hc         1 QBE       0.058700
     29 H2          -3.7860   -48.7950     6.3550 hc         1 QBE       0.058700
     30 H3          -5.4430   -47.0200     6.1090 hc         1 QBE       0.045700
     31 H4          -4.2060   -46.4470     7.2250 hc         1 QBE       0.045700
     32 H5          -4.2340   -45.8660     5.5620 hc         1 QBE       0.045700
     33 H6          -2.6650   -45.6790     3.9250 ha         1 QBE       0.169000
     34 H7          -0.9180   -48.9640     0.7080 ha         1 QBE       0.115000
     35 H8          -2.3970   -47.1940    -0.0740 ha         1 QBE       0.110000
     36 H9          -0.2080   -47.4830     5.2780 hn         1 QBE       0.157000
     37 H10          0.8710   -49.1200     3.6310 hc         1 QBE       0.044367
     38 H11         -0.5440   -50.0690     4.0490 hc         1 QBE       0.044367
     39 H12          0.1510   -50.1830     2.4320 hc         1 QBE       0.044367
     40 H13         -3.7060   -45.4560     0.3560 hn         1 QBE       0.498000
     41 H15         -5.8350   -40.6540     5.6500 h4         1 QBE       0.055800
     42 H16         -6.9060   -40.8600     1.5180 hn         1 QBE       0.535000
     43 H17         -6.0130   -41.3940    -1.0280 h1         1 QBE       0.091700
     44 H18         -7.9840   -43.6240    -0.1670 hc         1 QBE       0.084700
     45 H19         -7.3640   -43.3240    -1.8550 hc         1 QBE       0.084700
     46 H20         -8.3530   -40.9870    -1.7740 hc         1 QBE       0.084700
     47 H21         -8.9620   -41.3240    -0.0900 hc         1 QBE       0.084700
     48 H22         -5.1430   -43.7760     0.0490 ha         1 QBE       0.140000
     49 C           -0.0790   -49.4960     3.2450 c3         1 QBE      -0.040800
@<TRIPOS>BOND
     1     1    15 2   
     2     1    18 1   
     3     1    19 1   
     4     2     6 ar  
     5     2     9 1   
     6     2    12 ar  
     7     3     4 1   
     8     3     9 1   
     9     3    10 2   
    10     4     5 1   
    11     4    28 1   
    12     4    29 1   
    13     5    30 1   
    14     5    31 1   
    15     5    32 1   
    16     6    27 ar  
    17     6    33 1   
    18     7     8 ar  
    19     7    12 ar  
    20     7    34 1   
    21     8    27 ar  
    22     8    35 1   
    23     9    36 1   
    24    11    26 1   
    25    11    27 1   
    26    11    40 1   
    27    12    49 1   
    28    13    14 3   
    29    14    15 1   
    30    15    16 1   
    31    16    17 2   
    32    16    41 1   
    33    17    18 1   
    34    18    20 1   
    35    19    26 2   
    36    20    21 1   
    37    20    25 2   
    38    21    22 1   
    39    21    42 1   
    40    22    23 1   
    41    22    24 1   
    42    22    43 1   
    43    23    24 1   
    44    23    44 1   
    45    23    45 1   
    46    24    46 1   
    47    24    47 1   
    48    25    26 1   
    49    25    48 1   
    50    37    49 1   
    51    38    49 1   
    52    39    49 1   
@<TRIPOS>SUBSTRUCTURE
     1 QBE         1 TEMP              0 ****  ****    0 ROOT
