@<TRIPOS>MOLECULE
QBF
   31    31     1     0     0
SMALL
abcg2


@<TRIPOS>ATOM
      1 CAA         17.9250    16.5570    36.0050 c3         1 QBF       0.152900
      2 CAC         17.3320    14.2750    35.5660 ca         1 QBF       0.106600
      3 CAD         17.5800    13.8640    36.8740 ca         1 QBF      -0.184500
      4 CAE         17.3870    12.5310    37.2350 ca         1 QBF      -0.041300
      5 CAF         16.9480    11.6200    36.2750 ca         1 QBF      -0.184500
      6 CAG         16.7020    12.0280    34.9640 ca         1 QBF       0.106600
      7 CAH         16.8940    13.3640    34.6040 ca         1 QBF       0.078100
      8 CAK         16.0770     9.8260    34.2750 c3         1 QBF       0.152900
      9 CAL         17.6260    12.0970    38.6640 c3         1 QBF      -0.027100
     10 CAM         18.4470    10.8130    38.8080 c3         1 QBF      -0.080400
     11 CAN         18.6910    10.4600    40.2620 c3         1 QBF       0.161600
     12 OAB         17.4850    15.5490    35.0960 os         1 QBF      -0.350600
     13 OAI         16.6560    13.7570    33.3150 oh         1 QBF      -0.517100
     14 OAJ         16.2740    11.2040    33.9670 os         1 QBF      -0.350600
     15 OAO         19.4230     9.2290    40.3140 oh         1 QBF      -0.669000
     16 H1          17.9680    17.4790    35.4320 h1         1 QBF       0.042033
     17 H2          17.2210    16.6690    36.8330 h1         1 QBF       0.042033
     18 H3          18.9160    16.3200    36.3990 h1         1 QBF       0.042033
     19 H4          17.9240    14.5730    37.6130 ha         1 QBF       0.119500
     20 H5          16.7910    10.5890    36.5490 ha         1 QBF       0.119500
     21 H6          15.7550     9.3580    33.3480 h1         1 QBF       0.042033
     22 H7          17.0060     9.3620    34.6160 h1         1 QBF       0.042033
     23 H8          15.3060     9.6980    35.0380 h1         1 QBF       0.042033
     24 H9          18.1330    12.9070    39.1940 hc         1 QBF       0.045200
     25 H10         16.6610    11.9600    39.1660 hc         1 QBF       0.045200
     26 H11         17.9320     9.9760    38.3300 hc         1 QBF       0.056700
     27 H12         19.4080    10.9330    38.2990 hc         1 QBF       0.056700
     28 H13         19.2570    11.2590    40.7550 h1         1 QBF       0.018700
     29 H14         17.7340    10.3530    40.7860 h1         1 QBF       0.018700
     30 H15         16.8490    14.7050    33.2570 ho         1 QBF       0.472000
     31 H16         19.6120     9.0290    41.2390 ho         1 QBF       0.442000
@<TRIPOS>BOND
     1     1    12 1   
     2     1    16 1   
     3     1    17 1   
     4     1    18 1   
     5     2     3 ar  
     6     2     7 ar  
     7     2    12 1   
     8     3     4 ar  
     9     3    19 1   
    10     4     5 ar  
    11     4     9 1   
    12     5     6 ar  
    13     5    20 1   
    14     6     7 ar  
    15     6    14 1   
    16     7    13 1   
    17     8    14 1   
    18     8    21 1   
    19     8    22 1   
    20     8    23 1   
    21     9    10 1   
    22     9    24 1   
    23     9    25 1   
    24    10    11 1   
    25    10    26 1   
    26    10    27 1   
    27    11    15 1   
    28    11    28 1   
    29    11    29 1   
    30    13    30 1   
    31    15    31 1   
@<TRIPOS>SUBSTRUCTURE
     1 QBF         1 TEMP              0 ****  ****    0 ROOT
