@<TRIPOS>MOLECULE
QBF
   31    31     1     0     0
SMALL
No Charge or Current Charge


@<TRIPOS>ATOM
      1 CAA         18.2850    16.3860    36.1690 c3         1 QBF       0.152900
      2 CAC         17.4090    14.1520    35.5640 ca         1 QBF       0.106600
      3 CAD         17.5300    13.6700    36.8850 ca         1 QBF      -0.184500
      4 CAE         17.1560    12.3510    37.1960 ca         1 QBF      -0.041300
      5 CAF         16.6620    11.5070    36.1850 ca         1 QBF      -0.184500
      6 CAG         16.5350    11.9750    34.8570 ca         1 QBF       0.106600
      7 CAH         16.9110    13.3050    34.5510 ca         1 QBF       0.078100
      8 CAK         15.6490     9.8020    34.0630 c3         1 QBF       0.152900
      9 CAL         17.2940    11.8340    38.6230 c3         1 QBF      -0.027100
     10 CAM         18.6770    11.1980    38.8770 c3         1 QBF      -0.080400
     11 CAN         18.8410    10.6680    40.3150 c3         1 QBF       0.161600
     12 OAB         17.7660    15.4440    35.2130 os         1 QBF      -0.350600
     13 OAI         16.8020    13.7930    33.2720 oh         1 QBF      -0.517100
     14 OAJ         16.0520    11.1660    33.8410 os         1 QBF      -0.350600
     15 OAO         20.1420    10.0950    40.4740 oh         1 QBF      -0.669000
     16 H1          18.5010    17.3440    35.6800 h1         1 QBF       0.042033
     17 H2          17.5580    16.5700    36.9700 h1         1 QBF       0.042033
     18 H3          19.2170    16.0150    36.6160 h1         1 QBF       0.042033
     19 H4          17.9130    14.3050    37.6790 ha         1 QBF       0.119500
     20 H5          16.3840    10.4910    36.4480 ha         1 QBF       0.119500
     21 H6          15.3010     9.3510    33.1250 h1         1 QBF       0.042033
     22 H7          16.4890     9.2030    34.4370 h1         1 QBF       0.042033
     23 H8          14.8280     9.7510    34.7900 h1         1 QBF       0.042033
     24 H9          17.1370    12.6530    39.3370 hc         1 QBF       0.045200
     25 H10         16.5120    11.0940    38.8320 hc         1 QBF       0.045200
     26 H11         18.8290    10.3740    38.1690 hc         1 QBF       0.056700
     27 H12         19.4570    11.9420    38.6760 hc         1 QBF       0.056700
     28 H13         18.7000    11.4940    41.0250 h1         1 QBF       0.018700
     29 H14         18.0670     9.9140    40.5140 h1         1 QBF       0.018700
     30 H15         17.1170    14.7240    33.2950 ho         1 QBF       0.472000
     31 H16         20.2010     9.7720    41.4010 ho         1 QBF       0.442000
@<TRIPOS>BOND
     1     1    12 1   
     2     1    16 1   
     3     1    17 1   
     4     1    18 1   
     5     2     3 ar  
     6     2     7 ar  
     7     2    12 1   
     8     3     4 ar  
     9     3    19 1   
    10     4     5 ar  
    11     4     9 1   
    12     5     6 ar  
    13     5    20 1   
    14     6     7 ar  
    15     6    14 1   
    16     7    13 1   
    17     8    14 1   
    18     8    21 1   
    19     8    22 1   
    20     8    23 1   
    21     9    10 1   
    22     9    24 1   
    23     9    25 1   
    24    10    11 1   
    25    10    26 1   
    26    10    27 1   
    27    11    15 1   
    28    11    28 1   
    29    11    29 1   
    30    13    30 1   
    31    15    31 1   
@<TRIPOS>SUBSTRUCTURE
     1 QBF         1 TEMP              0 ****  ****    0 ROOT
