@<TRIPOS>MOLECULE
QBG
   64    67     1     0     0
SMALL
abcg2


@<TRIPOS>ATOM
      1 O7           8.1000     4.0500    36.9660 o          1 QBG      -0.739500
      2 C26          9.1400     4.6880    36.7180 c          1 QBG       0.719000
      3 O8           9.3670     5.8880    36.9810 o          1 QBG      -0.739500
      4 C25         10.2730     3.9060    36.0230 c3         1 QBG      -0.207400
      5 C24         11.4150     4.7950    35.5610 c3         1 QBG      -0.126400
      6 C23         12.0950     5.5010    36.7030 c          1 QBG       0.641300
      7 O6          12.4020     4.9140    37.7270 o          1 QBG      -0.546100
      8 C21         12.4820     6.9040    36.5440 cc         1 QBG      -0.142600
      9 C22         12.1760     7.7940    35.5600 cd         1 QBG      -0.151200
     10 C16         12.6910     9.0960    35.8110 ca         1 QBG      -0.094800
     11 C15         12.5260    10.2640    35.0460 ca         1 QBG      -0.150000
     12 S1          13.4250     7.6230    37.8190 ss         1 QBG       0.241400
     13 C17         13.3920     9.1550    37.0200 ca         1 QBG      -0.176000
     14 C18         13.9410    10.3490    37.4850 ca         1 QBG      -0.125000
     15 C19         13.7490    11.4920    36.7400 ca         1 QBG       0.102100
     16 O5          14.1840    12.7090    37.1070 os         1 QBG      -0.341100
     17 C20         14.9280    12.8190    38.3030 c3         1 QBG       0.143900
     18 C14         13.0240    11.4550    35.5110 ca         1 QBG       0.099100
     19 O4          12.8910    12.6580    34.9170 os         1 QBG      -0.346100
     20 C13         12.0040    12.8820    33.8330 c3         1 QBG       0.139600
     21 C12         11.0500    14.0170    34.1490 c3         1 QBG       0.148600
     22 O3           9.8800    13.6700    34.8940 os         1 QBG      -0.347100
     23 C1           9.9630    12.6620    35.7950 ca         1 QBG      -0.004900
     24 C2          10.5670    12.8260    37.0150 ca         1 QBG       0.231000
     25 F           11.0950    14.0140    37.3240 f          1 QBG      -0.172000
     26 C3          10.6690    11.7800    37.9330 ca         1 QBG      -0.150800
     27 C7          11.3160    11.7370    39.2000 cc         1 QBG      -0.135200
     28 C6          11.2260    10.5120    39.7820 cd         1 QBG      -0.151600
     29 C8          11.7480    10.0330    41.0660 c          1 QBG       0.630300
     30 C9          12.5220    10.9890    41.9330 c3         1 QBG      -0.125400
     31 C10         13.6020    10.2960    42.7430 c3         1 QBG      -0.206400
     32 C11         14.6620     9.5950    41.8710 c          1 QBG       0.725000
     33 O2          14.4860     9.6320    40.6340 o          1 QBG      -0.744000
     34 O1          15.6030     9.0470    42.4740 o          1 QBG      -0.744000
     35 O           11.4800     8.9000    41.4200 o          1 QBG      -0.522100
     36 S           10.3350     9.3710    38.8160 ss         1 QBG       0.271400
     37 C4          10.0900    10.5510    37.5810 ca         1 QBG      -0.140000
     38 C5           9.4310    10.3520    36.3710 ca         1 QBG      -0.165000
     39 C            9.3830    11.4060    35.4740 ca         1 QBG       0.133100
     40 O9           8.8200    11.3470    34.2620 os         1 QBG      -0.343100
     41 C27          8.2480    10.1220    33.8450 c3         1 QBG       0.143900
     42 H2           9.8670     3.3610    35.1670 hc         1 QBG       0.024700
     43 H3          10.6420     3.1370    36.7080 hc         1 QBG       0.024700
     44 H4          12.1870     4.1910    35.0700 hc         1 QBG       0.026200
     45 H5          11.0620     5.5000    34.8100 hc         1 QBG       0.026200
     46 H6          11.5820     7.5500    34.6900 ha         1 QBG       0.190000
     47 H7          11.9880    10.1980    34.1100 ha         1 QBG       0.104000
     48 H8          14.4460    10.3710    38.4410 ha         1 QBG       0.187000
     49 H9          15.1860    13.8690    38.4090 h1         1 QBG       0.040033
     50 H10         14.3510    12.5060    39.1780 h1         1 QBG       0.040033
     51 H11         15.8480    12.2290    38.2650 h1         1 QBG       0.040033
     52 H12         12.6030    13.1860    32.9710 h1         1 QBG       0.043700
     53 H13         11.4520    11.9910    33.5330 h1         1 QBG       0.043700
     54 H14         11.5950    14.8200    34.6540 h1         1 QBG       0.043700
     55 H15         10.6800    14.4170    33.2050 h1         1 QBG       0.043700
     56 H16         11.8280    12.5780    39.6430 ha         1 QBG       0.200000
     57 H17         12.9510    11.7900    41.3330 hc         1 QBG       0.029200
     58 H18         11.7930    11.4660    42.6000 hc         1 QBG       0.029200
     59 H19         13.1600     9.5610    43.4210 hc         1 QBG       0.026200
     60 H20         14.0950    11.0280    43.3890 hc         1 QBG       0.026200
     61 H22          9.0080     9.3850    36.1370 ha         1 QBG       0.154000
     62 H23          7.8630    10.2890    32.8420 h1         1 QBG       0.041033
     63 H24          8.9880     9.3180    33.8110 h1         1 QBG       0.041033
     64 H25          7.4220     9.8180    34.4940 h1         1 QBG       0.041033
@<TRIPOS>BOND
     1     1     2 1   
     2     2     3 1   
     3     2     4 1   
     4     4     5 1   
     5     4    42 1   
     6     4    43 1   
     7     5     6 1   
     8     5    44 1   
     9     5    45 1   
    10     6     7 2   
    11     6     8 1   
    12     8     9 2   
    13     8    12 1   
    14     9    10 1   
    15     9    46 1   
    16    10    11 ar  
    17    10    13 ar  
    18    11    18 ar  
    19    11    47 1   
    20    12    13 1   
    21    13    14 ar  
    22    14    15 ar  
    23    14    48 1   
    24    15    16 1   
    25    15    18 ar  
    26    16    17 1   
    27    17    49 1   
    28    17    50 1   
    29    17    51 1   
    30    18    19 1   
    31    19    20 1   
    32    20    21 1   
    33    20    52 1   
    34    20    53 1   
    35    21    22 1   
    36    21    54 1   
    37    21    55 1   
    38    22    23 1   
    39    23    24 ar  
    40    23    39 ar  
    41    24    25 1   
    42    24    26 ar  
    43    26    27 1   
    44    26    37 ar  
    45    27    28 2   
    46    27    56 1   
    47    28    29 1   
    48    28    36 1   
    49    29    30 1   
    50    29    35 2   
    51    30    31 1   
    52    30    57 1   
    53    30    58 1   
    54    31    32 1   
    55    31    59 1   
    56    31    60 1   
    57    32    33 1   
    58    32    34 1   
    59    36    37 1   
    60    37    38 ar  
    61    38    39 ar  
    62    38    61 1   
    63    39    40 1   
    64    40    41 1   
    65    41    62 1   
    66    41    63 1   
    67    41    64 1   
@<TRIPOS>SUBSTRUCTURE
     1 QBG         1 TEMP              0 ****  ****    0 ROOT
