@<TRIPOS>MOLECULE
QBG
   64    67     1     0     0
SMALL
No Charge or Current Charge


@<TRIPOS>ATOM
      1 O7           8.5040     6.2850    34.9890 o          1 QBG      -0.739500
      2 C26          8.9990     5.7680    35.9770 c          1 QBG       0.719000
      3 O8           8.9400     6.2430    37.0990 o          1 QBG      -0.739500
      4 C25          9.7970     4.4680    35.7900 c3         1 QBG      -0.207400
      5 C24         11.2890     4.7690    35.4640 c3         1 QBG      -0.126400
      6 C23         12.0330     5.4620    36.6320 c          1 QBG       0.641300
      7 O6          12.3500     4.8000    37.6160 o          1 QBG      -0.546100
      8 C21         12.3940     6.9010    36.5350 cc         1 QBG      -0.142600
      9 C22         12.1270     7.7770    35.4900 cd         1 QBG      -0.151200
     10 C16         12.6910     9.0940    35.6590 ca         1 QBG      -0.094800
     11 C15         12.6210    10.1720    34.7670 ca         1 QBG      -0.150000
     12 S1          13.3340     7.6920    37.8290 ss         1 QBG       0.241400
     13 C17         13.3690     9.1910    36.8540 ca         1 QBG      -0.176000
     14 C18         14.0080    10.3830    37.2290 ca         1 QBG      -0.125000
     15 C19         13.9650    11.4910    36.3470 ca         1 QBG       0.102100
     16 O5          14.5790    12.6940    36.6550 os         1 QBG      -0.341100
     17 C20         15.1380    12.9600    37.9520 c3         1 QBG       0.143900
     18 C14         13.2650    11.3810    35.1160 ca         1 QBG       0.099100
     19 O4          13.2710    12.4510    34.2430 os         1 QBG      -0.346100
     20 C13         12.0660    12.9310    33.6130 c3         1 QBG       0.139600
     21 C12         11.3170    13.8780    34.5890 c3         1 QBG       0.148600
     22 O3          10.1310    13.2300    35.0980 os         1 QBG      -0.347100
     23 C1          10.1860    12.2020    36.0260 ca         1 QBG      -0.004900
     24 C2          10.8160    12.3650    37.2880 ca         1 QBG       0.231000
     25 F           11.3910    13.5400    37.6400 f          1 QBG      -0.172000
     26 C3          10.7890    11.3070    38.2150 ca         1 QBG      -0.150800
     27 C7          11.3560    11.3120    39.5480 cc         1 QBG      -0.135200
     28 C6          11.0970    10.1170    40.2180 cd         1 QBG      -0.151600
     29 C8          11.4450     9.8020    41.6320 c          1 QBG       0.630300
     30 C9          12.1350    10.8560    42.5320 c3         1 QBG      -0.125400
     31 C10         13.6380    10.5440    42.7840 c3         1 QBG      -0.206400
     32 C11         14.4500    10.6460    41.4840 c          1 QBG       0.725000
     33 O2          14.5620     9.6410    40.8020 o          1 QBG      -0.744000
     34 O1          14.9000    11.7360    41.1710 o          1 QBG      -0.744000
     35 O           11.1560     8.7110    42.1100 o          1 QBG      -0.522100
     36 S           10.2190     8.9240    39.2190 ss         1 QBG       0.271400
     37 C4          10.1530    10.1220    37.9100 ca         1 QBG      -0.140000
     38 C5           9.5250     9.9300    36.6710 ca         1 QBG      -0.165000
     39 C            9.5370    10.9790    35.7210 ca         1 QBG       0.133100
     40 O9           8.9340    10.8440    34.4810 os         1 QBG      -0.343100
     41 C27          8.3840     9.5960    34.0270 c3         1 QBG       0.143900
     42 H2           9.4170     3.9150    34.9220 hc         1 QBG       0.024700
     43 H3           9.8000     3.8800    36.7160 hc         1 QBG       0.024700
     44 H4          11.7810     3.8080    35.2710 hc         1 QBG       0.026200
     45 H5          11.3270     5.3690    34.5510 hc         1 QBG       0.026200
     46 H6          11.5580     7.5110    34.6050 ha         1 QBG       0.190000
     47 H7          12.1000    10.0640    33.8200 ha         1 QBG       0.104000
     48 H8          14.5260    10.4310    38.1830 ha         1 QBG       0.187000
     49 H9          15.5460    13.9780    37.9880 h1         1 QBG       0.040033
     50 H10         14.3670    12.8750    38.7280 h1         1 QBG       0.040033
     51 H11         15.9520    12.2600    38.1800 h1         1 QBG       0.040033
     52 H12         12.3360    13.5150    32.7240 h1         1 QBG       0.043700
     53 H13         11.4140    12.1140    33.2810 h1         1 QBG       0.043700
     54 H14         11.9870    14.2070    35.3920 h1         1 QBG       0.043700
     55 H15         11.0220    14.7730    34.0280 h1         1 QBG       0.043700
     56 H16         11.8920    12.1570    39.9700 ha         1 QBG       0.200000
     57 H17         12.0590    11.8590    42.1030 hc         1 QBG       0.029200
     58 H18         11.6320    10.8520    43.5060 hc         1 QBG       0.029200
     59 H19         13.6750     9.5240    43.1850 hc         1 QBG       0.026200
     60 H20         13.9760    11.3050    43.4990 hc         1 QBG       0.026200
     61 H22          9.0410     8.9800    36.4670 ha         1 QBG       0.154000
     62 H23          7.9800     9.7060    33.0130 h1         1 QBG       0.041033
     63 H24          9.1590     8.8190    34.0010 h1         1 QBG       0.041033
     64 H25          7.5700     9.2640    34.6830 h1         1 QBG       0.041033
@<TRIPOS>BOND
     1     1     2 1   
     2     2     3 1   
     3     2     4 1   
     4     4     5 1   
     5     4    42 1   
     6     4    43 1   
     7     5     6 1   
     8     5    44 1   
     9     5    45 1   
    10     6     7 2   
    11     6     8 1   
    12     8     9 2   
    13     8    12 1   
    14     9    10 1   
    15     9    46 1   
    16    10    11 ar  
    17    10    13 ar  
    18    11    18 ar  
    19    11    47 1   
    20    12    13 1   
    21    13    14 ar  
    22    14    15 ar  
    23    14    48 1   
    24    15    16 1   
    25    15    18 ar  
    26    16    17 1   
    27    17    49 1   
    28    17    50 1   
    29    17    51 1   
    30    18    19 1   
    31    19    20 1   
    32    20    21 1   
    33    20    52 1   
    34    20    53 1   
    35    21    22 1   
    36    21    54 1   
    37    21    55 1   
    38    22    23 1   
    39    23    24 ar  
    40    23    39 ar  
    41    24    25 1   
    42    24    26 ar  
    43    26    27 1   
    44    26    37 ar  
    45    27    28 2   
    46    27    56 1   
    47    28    29 1   
    48    28    36 1   
    49    29    30 1   
    50    29    35 2   
    51    30    31 1   
    52    30    57 1   
    53    30    58 1   
    54    31    32 1   
    55    31    59 1   
    56    31    60 1   
    57    32    33 1   
    58    32    34 1   
    59    36    37 1   
    60    37    38 ar  
    61    38    39 ar  
    62    38    61 1   
    63    39    40 1   
    64    40    41 1   
    65    41    62 1   
    66    41    63 1   
    67    41    64 1   
@<TRIPOS>SUBSTRUCTURE
     1 QBG         1 TEMP              0 ****  ****    0 ROOT
