@<TRIPOS>MOLECULE
QBJ
   64    67     1     0     0
SMALL
abcg2


@<TRIPOS>ATOM
      1 O8          42.7420     0.1200    14.7490 o          1 QBJ      -0.743000
      2 C25         42.1060     1.0900    14.2830 c          1 QBJ       0.722000
      3 O7          42.3480     1.7100    13.2310 o          1 QBJ      -0.743000
      4 C24         40.8890     1.5760    15.0970 c3         1 QBJ      -0.205400
      5 C23         40.6520     0.7730    16.3660 c3         1 QBJ      -0.127400
      6 C22         41.8250     0.8440    17.3090 c          1 QBJ       0.636300
      7 O6          42.3720     1.9030    17.5640 o          1 QBJ      -0.546100
      8 C21         42.2850    -0.3730    17.9790 cc         1 QBJ      -0.161600
      9 S1          43.5810    -0.2040    19.1300 ss         1 QBJ       0.256400
     10 C26         41.9380    -1.6700    17.7670 cd         1 QBJ      -0.141200
     11 C27         42.7240    -2.5780    18.5270 ca         1 QBJ      -0.111800
     12 C20         43.6730    -1.9200    19.3200 ca         1 QBJ      -0.155000
     13 C19         44.5840    -2.6290    20.1040 ca         1 QBJ      -0.136000
     14 C17         44.5750    -4.0100    20.0400 ca         1 QBJ       0.116100
     15 O5          45.4400    -4.8000    20.6950 os         1 QBJ      -0.344100
     16 C18         46.3990    -4.1890    21.5350 c3         1 QBJ       0.136900
     17 C28         42.6980    -3.9790    18.5090 ca         1 QBJ      -0.112000
     18 C16         43.6250    -4.6910    19.2280 ca         1 QBJ       0.074100
     19 O4          43.6730    -6.0460    19.2260 os         1 QBJ      -0.353100
     20 C15         43.6500    -6.7060    17.9570 c3         1 QBJ       0.205800
     21 C14         45.0360    -6.9840    17.4470 c2         1 QBJ      -0.255200
     22 C13         45.8930    -6.1280    16.8910 ce         1 QBJ      -0.096200
     23 C12         45.7580    -4.6770    16.6420 ca         1 QBJ      -0.120800
     24 C           44.7580    -4.1090    15.8060 ca         1 QBJ       0.136100
     25 O           43.8980    -4.9790    15.2560 os         1 QBJ      -0.362100
     26 C1          42.8260    -4.4790    14.4810 c3         1 QBJ       0.147900
     27 C11         46.6910    -3.8450    17.2200 ca         1 QBJ      -0.025000
     28 C10         46.6420    -2.4600    17.0310 ca         1 QBJ      -0.127800
     29 C3          45.6390    -1.9270    16.2040 ca         1 QBJ      -0.138000
     30 C2          44.7000    -2.7420    15.5810 ca         1 QBJ      -0.153000
     31 C9          47.4680    -1.4510    17.5960 cc         1 QBJ      -0.107200
     32 C4          47.1040    -0.2000    17.2020 cd         1 QBJ      -0.187600
     33 S           45.7440    -0.2030    16.1100 ss         1 QBJ       0.263400
     34 C5          47.6460     1.0940    17.6010 c          1 QBJ       0.618300
     35 O1          47.1690     2.1140    17.1350 o          1 QBJ      -0.553100
     36 C6          48.7530     1.1370    18.6240 c3         1 QBJ      -0.147400
     37 C7          48.1960     1.3570    20.0400 c3         1 QBJ      -0.193400
     38 C8          47.4530     0.1230    20.5900 c          1 QBJ       0.715000
     39 O2          46.2350     0.2490    20.8300 o          1 QBJ      -0.744500
     40 O3          48.1440    -0.9060    20.7460 o          1 QBJ      -0.744500
     41 H2          41.0170     2.6350    15.3330 hc         1 QBJ       0.023200
     42 H3          39.9960     1.5250    14.4670 hc         1 QBJ       0.023200
     43 H4          39.7900     1.1770    16.9100 hc         1 QBJ       0.025700
     44 H5          40.4000    -0.2570    16.1200 hc         1 QBJ       0.025700
     45 H6          41.1760    -1.9900    17.0700 ha         1 QBJ       0.187000
     46 H7          45.3090    -2.0840    20.6950 ha         1 QBJ       0.181000
     47 H8          47.0010    -4.9940    21.9500 h1         1 QBJ       0.044700
     48 H9          47.0520    -3.5020    20.9900 h1         1 QBJ       0.044700
     49 H10         45.9280    -3.6410    22.3550 h1         1 QBJ       0.044700
     50 H11         41.9580    -4.4870    17.9030 ha         1 QBJ       0.101000
     51 H12         43.0700    -6.1410    17.2290 h1         1 QBJ       0.041700
     52 H13         43.1280    -7.6490    18.1220 h1         1 QBJ       0.041700
     53 H14         45.3930    -7.9990    17.5850 ha         1 QBJ       0.146000
     54 H15         46.8770    -6.5230    16.6530 ha         1 QBJ       0.148000
     55 H16         42.2360    -5.3400    14.1800 h1         1 QBJ       0.037367
     56 H17         42.1920    -3.7990    15.0570 h1         1 QBJ       0.037367
     57 H18         43.1780    -3.9610    13.5850 h1         1 QBJ       0.037367
     58 H19         47.4630    -4.2700    17.8510 ha         1 QBJ       0.108000
     59 H20         43.9360    -2.2970    14.9590 ha         1 QBJ       0.163000
     60 H21         48.2650    -1.6530    18.2960 ha         1 QBJ       0.223000
     61 H22         49.3560     0.2300    18.6050 hc         1 QBJ       0.036700
     62 H23         49.4100     1.9680    18.3610 hc         1 QBJ       0.036700
     63 H24         49.0470     1.5760    20.6910 hc         1 QBJ       0.025200
     64 H25         47.5540     2.2400    20.0450 hc         1 QBJ       0.025200
@<TRIPOS>BOND
     1     1     2 1   
     2     2     3 1   
     3     2     4 1   
     4     4     5 1   
     5     4    41 1   
     6     4    42 1   
     7     5     6 1   
     8     5    43 1   
     9     5    44 1   
    10     6     7 2   
    11     6     8 1   
    12     8     9 1   
    13     8    10 2   
    14     9    12 1   
    15    10    11 1   
    16    10    45 1   
    17    11    12 ar  
    18    11    17 ar  
    19    12    13 ar  
    20    13    14 ar  
    21    13    46 1   
    22    14    15 1   
    23    14    18 ar  
    24    15    16 1   
    25    16    47 1   
    26    16    48 1   
    27    16    49 1   
    28    17    18 ar  
    29    17    50 1   
    30    18    19 1   
    31    19    20 1   
    32    20    21 1   
    33    20    51 1   
    34    20    52 1   
    35    21    22 2   
    36    21    53 1   
    37    22    23 1   
    38    22    54 1   
    39    23    24 ar  
    40    23    27 ar  
    41    24    25 1   
    42    24    30 ar  
    43    25    26 1   
    44    26    55 1   
    45    26    56 1   
    46    26    57 1   
    47    27    28 ar  
    48    27    58 1   
    49    28    29 ar  
    50    28    31 1   
    51    29    30 ar  
    52    29    33 1   
    53    30    59 1   
    54    31    32 2   
    55    31    60 1   
    56    32    33 1   
    57    32    34 1   
    58    34    35 2   
    59    34    36 1   
    60    36    37 1   
    61    36    61 1   
    62    36    62 1   
    63    37    38 1   
    64    37    63 1   
    65    37    64 1   
    66    38    39 1   
    67    38    40 1   
@<TRIPOS>SUBSTRUCTURE
     1 QBJ         1 TEMP              0 ****  ****    0 ROOT
