@<TRIPOS>MOLECULE
QBJ
   64    67     1     0     0
SMALL
No Charge or Current Charge


@<TRIPOS>ATOM
      1 O8          41.1200    -1.0940    14.0160 o          1 QBJ      -0.743000
      2 C25         41.5320    -0.0200    14.4220 c          1 QBJ       0.722000
      3 O7          42.7140     0.2680    14.5100 o          1 QBJ      -0.743000
      4 C24         40.5040     1.0160    14.9070 c3         1 QBJ      -0.205400
      5 C23         40.1480     0.8010    16.4070 c3         1 QBJ      -0.127400
      6 C22         41.3520     1.0330    17.3530 c          1 QBJ       0.636300
      7 O6          41.6710     2.1800    17.6490 o          1 QBJ      -0.546100
      8 C21         42.0820    -0.1310    17.9160 cc         1 QBJ      -0.161600
      9 S1          43.4170     0.0950    19.0780 ss         1 QBJ       0.256400
     10 C26         41.8540    -1.4750    17.6550 cd         1 QBJ      -0.141200
     11 C27         42.7210    -2.3750    18.3740 ca         1 QBJ      -0.111800
     12 C20         43.6040    -1.6820    19.1710 ca         1 QBJ      -0.155000
     13 C19         44.5490    -2.3590    19.9570 ca         1 QBJ      -0.136000
     14 C17         44.5870    -3.7760    19.9210 ca         1 QBJ       0.116100
     15 O5          45.5050    -4.4970    20.6700 os         1 QBJ      -0.344100
     16 C18         46.5540    -3.8600    21.4190 c3         1 QBJ       0.136900
     17 C28         42.7280    -3.7740    18.3150 ca         1 QBJ      -0.112000
     18 C16         43.6790    -4.4840    19.0860 ca         1 QBJ       0.074100
     19 O4          43.7180    -5.8680    19.0630 os         1 QBJ      -0.353100
     20 C15         43.5720    -6.6120    17.8370 c3         1 QBJ       0.205800
     21 C14         44.9530    -6.9770    17.3220 c2         1 QBJ      -0.255200
     22 C13         45.9020    -6.1660    16.7970 ce         1 QBJ      -0.096200
     23 C12         45.8030    -4.6900    16.6210 ca         1 QBJ      -0.120800
     24 C           44.8470    -4.0940    15.7550 ca         1 QBJ       0.136100
     25 O           43.9930    -4.9150    15.0390 os         1 QBJ      -0.362100
     26 C1          42.9180    -4.3920    14.2390 c3         1 QBJ       0.147900
     27 C11         46.7100    -3.8730    17.3290 ca         1 QBJ      -0.025000
     28 C10         46.6450    -2.4800    17.1830 ca         1 QBJ      -0.127800
     29 C3          45.7130    -1.9020    16.3490 ca         1 QBJ      -0.138000
     30 C2          44.8020    -2.6840    15.6240 ca         1 QBJ      -0.153000
     31 C9          47.4910    -1.5130    17.8440 cc         1 QBJ      -0.107200
     32 C4          47.1730    -0.2110    17.4590 cd         1 QBJ      -0.187600
     33 S           45.7990    -0.1280    16.3190 ss         1 QBJ       0.263400
     34 C5          47.8760     1.0270    17.8930 c          1 QBJ       0.618300
     35 O1          47.4910     2.1250    17.5050 o          1 QBJ      -0.553100
     36 C6          49.1230     0.9470    18.8040 c3         1 QBJ      -0.147400
     37 C7          48.8140     1.3040    20.2870 c3         1 QBJ      -0.193400
     38 C8          47.8530     0.2830    20.9210 c          1 QBJ       0.715000
     39 O2          46.6570     0.5130    20.8600 o          1 QBJ      -0.744500
     40 O3          48.3290    -0.7300    21.4070 o          1 QBJ      -0.744500
     41 H2          40.9130     2.0320    14.8320 hc         1 QBJ       0.023200
     42 H3          39.5580     0.8860    14.3680 hc         1 QBJ       0.023200
     43 H4          39.3640     1.5230    16.6650 hc         1 QBJ       0.025700
     44 H5          39.7480    -0.2100    16.5170 hc         1 QBJ       0.025700
     45 H6          41.1040    -1.8400    16.9610 ha         1 QBJ       0.187000
     46 H7          45.2360    -1.7840    20.5710 ha         1 QBJ       0.181000
     47 H8          47.1800    -4.6140    21.9130 h1         1 QBJ       0.044700
     48 H9          47.1960    -3.2650    20.7570 h1         1 QBJ       0.044700
     49 H10         46.1400    -3.2030    22.1940 h1         1 QBJ       0.044700
     50 H11         42.0040    -4.2880    17.6910 ha         1 QBJ       0.101000
     51 H12         43.0060    -6.0640    17.0760 h1         1 QBJ       0.041700
     52 H13         43.0200    -7.5390    18.0380 h1         1 QBJ       0.041700
     53 H14         45.1660    -8.0410    17.4150 ha         1 QBJ       0.146000
     54 H15         46.8650    -6.5870    16.5030 ha         1 QBJ       0.148000
     55 H16         42.3470    -5.2120    13.7870 h1         1 QBJ       0.037367
     56 H17         42.2310    -3.7970    14.8550 h1         1 QBJ       0.037367
     57 H18         43.3040    -3.7600    13.4290 h1         1 QBJ       0.037367
     58 H19         47.4470    -4.3200    17.9930 ha         1 QBJ       0.108000
     59 H20         44.0810    -2.1920    14.9790 ha         1 QBJ       0.163000
     60 H21         48.2770    -1.7810    18.5460 ha         1 QBJ       0.223000
     61 H22         49.5660    -0.0520    18.7800 hc         1 QBJ       0.036700
     62 H23         49.8610     1.6710    18.4380 hc         1 QBJ       0.036700
     63 H24         49.7850     1.2680    20.7960 hc         1 QBJ       0.025200
     64 H25         48.3640     2.3040    20.2760 hc         1 QBJ       0.025200
@<TRIPOS>BOND
     1     1     2 1   
     2     2     3 1   
     3     2     4 1   
     4     4     5 1   
     5     4    41 1   
     6     4    42 1   
     7     5     6 1   
     8     5    43 1   
     9     5    44 1   
    10     6     7 2   
    11     6     8 1   
    12     8     9 1   
    13     8    10 2   
    14     9    12 1   
    15    10    11 1   
    16    10    45 1   
    17    11    12 ar  
    18    11    17 ar  
    19    12    13 ar  
    20    13    14 ar  
    21    13    46 1   
    22    14    15 1   
    23    14    18 ar  
    24    15    16 1   
    25    16    47 1   
    26    16    48 1   
    27    16    49 1   
    28    17    18 ar  
    29    17    50 1   
    30    18    19 1   
    31    19    20 1   
    32    20    21 1   
    33    20    51 1   
    34    20    52 1   
    35    21    22 2   
    36    21    53 1   
    37    22    23 1   
    38    22    54 1   
    39    23    24 ar  
    40    23    27 ar  
    41    24    25 1   
    42    24    30 ar  
    43    25    26 1   
    44    26    55 1   
    45    26    56 1   
    46    26    57 1   
    47    27    28 ar  
    48    27    58 1   
    49    28    29 ar  
    50    28    31 1   
    51    29    30 ar  
    52    29    33 1   
    53    30    59 1   
    54    31    32 2   
    55    31    60 1   
    56    32    33 1   
    57    32    34 1   
    58    34    35 2   
    59    34    36 1   
    60    36    37 1   
    61    36    61 1   
    62    36    62 1   
    63    37    38 1   
    64    37    63 1   
    65    37    64 1   
    66    38    39 1   
    67    38    40 1   
@<TRIPOS>SUBSTRUCTURE
     1 QBJ         1 TEMP              0 ****  ****    0 ROOT
