@<TRIPOS>MOLECULE
QBK
   14    15     1     0     0
SMALL
abcg2


@<TRIPOS>ATOM
      1 C5         -72.6330     9.7510    21.9220 c          1 QBK       0.656200
      2 C7         -75.9860     8.2440    21.9690 c          1 QBK       0.705100
      3 C8         -73.2390    11.8520    22.6600 cc         1 QBK       0.916200
      4 N12        -72.9110    13.0800    22.9910 nv         1 QBK      -0.986200
      5 C1         -75.0050    10.4530    22.4980 cd         1 QBK       0.387900
      6 C2         -74.0890     9.3870    22.0340 cd         1 QBK       0.256000
      7 S3         -76.6190     9.8390    22.5530 ss         1 QBK      -0.178800
      8 N4         -74.6180    11.6190    22.7970 nc         1 QBK      -0.669000
      9 N6         -74.5860     8.2560    21.7620 nc         1 QBK      -0.495100
     10 N9         -72.3100    11.0140    22.2600 nd         1 QBK      -0.790100
     11 O10        -71.8390     8.9170    21.5430 o          1 QBK      -0.458100
     12 O11        -76.6820     7.3020    21.7850 o          1 QBK      -0.388100
     13 H1         -71.9510    13.3830    22.9480 hn         1 QBK       0.522000
     14 H2         -73.6120    13.7350    23.3000 hn         1 QBK       0.522000
@<TRIPOS>BOND
     1     1     6 1   
     2     1    10 1   
     3     1    11 2   
     4     2     7 1   
     5     2     9 1   
     6     2    12 2   
     7     3     4 1   
     8     3     8 1   
     9     3    10 2   
    10     4    13 1   
    11     4    14 1   
    12     5     6 1   
    13     5     7 1   
    14     5     8 2   
    15     6     9 2   
@<TRIPOS>SUBSTRUCTURE
     1 QBK         1 TEMP              0 ****  ****    0 ROOT
