@<TRIPOS>MOLECULE
QBK
   14    15     1     0     0
SMALL
No Charge or Current Charge


@<TRIPOS>ATOM
      1 C5         -72.6260     9.7590    21.9080 c          1 QBK       0.656200
      2 C7         -76.0140     8.2340    22.0110 c          1 QBK       0.705100
      3 C8         -73.2860    11.9130    22.5590 cc         1 QBK       0.916200
      4 N12        -72.9390    13.1310    22.8380 nv         1 QBK      -0.986200
      5 C1         -74.9470    10.4310    22.4270 cd         1 QBK       0.387900
      6 C2         -74.0590     9.4130    22.0270 cd         1 QBK       0.256000
      7 S3         -76.5950     9.8800    22.5310 ss         1 QBK      -0.178800
      8 N4         -74.6130    11.6870    22.7070 nc         1 QBK      -0.669000
      9 N6         -74.6440     8.2390    21.8070 nc         1 QBK      -0.495100
     10 N9         -72.3340    11.1010    22.2160 nd         1 QBK      -0.790100
     11 O10        -71.7310     8.9930    21.5780 o          1 QBK      -0.458100
     12 O11        -76.7300     7.2580    21.8620 o          1 QBK      -0.388100
     13 H1         -71.9680    13.1980    23.1010 hn         1 QBK       0.522000
     14 H2         -73.5930    13.5950    23.4500 hn         1 QBK       0.522000
@<TRIPOS>BOND
     1     1     6 1   
     2     1    10 1   
     3     1    11 2   
     4     2     7 1   
     5     2     9 1   
     6     2    12 2   
     7     3     4 1   
     8     3     8 1   
     9     3    10 2   
    10     4    13 1   
    11     4    14 1   
    12     5     6 1   
    13     5     7 1   
    14     5     8 2   
    15     6     9 2   
@<TRIPOS>SUBSTRUCTURE
     1 QBK         1 TEMP              0 ****  ****    0 ROOT
