@<TRIPOS>MOLECULE
QBL
   55    60     1     0     0
SMALL
No Charge or Current Charge


@<TRIPOS>ATOM
      1 N1          -7.1560     2.5730   -47.0760 nb         1 QBL      -0.630000
      2 C2          -9.5660    -1.5940   -52.4670 ca         1 QBL      -0.070000
      3 N3          -9.2110     2.1030   -51.8600 nh         1 QBL      -0.798400
      4 C4          -9.1280     0.6970   -51.6230 ca         1 QBL       0.323000
      5 C5          -8.5180     0.1480   -50.4500 cp         1 QBL      -0.085000
      6 C6          -8.0540     0.9760   -49.2980 cp         1 QBL       0.039000
      7 C8          -8.4490     2.5960   -47.4940 ca         1 QBL       0.329900
      8 C1          -8.9360    -2.1590   -51.3540 ca         1 QBL       0.097000
      9 C3          -9.6710    -0.1910   -52.6040 ca         1 QBL      -0.122300
     10 C7          -8.9300     1.8300   -48.5820 ca         1 QBL      -0.131000
     11 C9          -6.3400     1.7560   -47.7620 ca         1 QBL       0.359800
     12 C10         -6.7310     0.9800   -48.8170 ca         1 QBL      -0.215000
     13 S1          -5.4290     0.0420   -49.5900 ss         1 QBL       0.087400
     14 C11         -4.2890     0.7380   -48.3940 cc         1 QBL      -0.081600
     15 C12         -2.8260     0.3860   -48.4260 c3         1 QBL       0.173200
     16 N2          -2.0660     1.3900   -49.1940 n          1 QBL      -0.394400
     17 C13         -1.7060     1.1720   -50.5160 c          1 QBL       0.564000
     18 O1          -2.2210     0.3580   -51.2680 o          1 QBL      -0.498500
     19 C14         -0.7440     2.3280   -50.8240 c5         1 QBL      -0.163400
     20 C15         -1.2260     3.4320   -49.8350 c5         1 QBL      -0.163400
     21 C16         -1.7060     2.6060   -48.6320 c          1 QBL       0.564000
     22 O2          -1.6160     2.8370   -47.4360 o          1 QBL      -0.498500
     23 C17         -4.9340     1.6040   -47.5240 cd         1 QBL      -0.254800
     24 C18         -8.4330    -1.2840   -50.3540 ca         1 QBL      -0.062000
     25 C19         -8.0440     2.9890   -51.6200 cy         1 QBL       0.172500
     26 C20         -8.2800     4.3780   -50.9300 cy         1 QBL       0.097300
     27 N4          -7.1270     4.8760   -51.7620 n6         1 QBL      -0.804400
     28 C21         -7.5050     3.8620   -52.8090 cy         1 QBL       0.097300
     29 C22        -10.3840     2.5640   -52.6410 c6         1 QBL       0.203800
     30 C23        -10.3570     1.8630   -54.0080 c6         1 QBL      -0.107400
     31 C24        -10.4340     0.3330   -53.8330 c6         1 QBL      -0.026100
     32 H2          -9.9850    -2.2490   -53.2270 ha         1 QBL       0.128000
     33 H8          -9.1210     3.2540   -46.9450 h4         1 QBL       0.024100
     34 H7          -9.9740     1.9020   -48.8700 ha         1 QBL       0.134000
     35 H122        -2.6950    -0.6070   -48.8750 h1         1 QBL       0.081700
     36 H121        -2.4380     0.3350   -47.4000 h1         1 QBL       0.081700
     37 H141         0.2610     2.0100   -50.5250 hc         1 QBL       0.087950
     38 H142        -0.7450     2.5910   -51.8870 hc         1 QBL       0.087950
     39 H151        -0.4860     4.1860   -49.5470 hc         1 QBL       0.087950
     40 H152        -2.1040     3.9250   -50.2670 hc         1 QBL       0.087950
     41 H17         -4.4220     2.1400   -46.7320 ha         1 QBL       0.225000
     42 H18         -7.9830    -1.7230   -49.4680 ha         1 QBL       0.138000
     43 H19         -7.2110     2.4490   -51.1560 h1         1 QBL       0.069700
     44 H202        -8.1350     4.3770   -49.8430 h1         1 QBL       0.063700
     45 H201        -9.2530     4.8240   -51.1690 h1         1 QBL       0.063700
     46 HN4         -6.2000     4.7180   -51.3470 hn         1 QBL       0.392000
     47 H212        -8.2860     4.1890   -53.5070 h1         1 QBL       0.063700
     48 H211        -6.6830     3.4030   -53.3710 h1         1 QBL       0.063700
     49 H222       -10.3710     3.6540   -52.7860 h1         1 QBL       0.057700
     50 H221       -11.3180     2.3210   -52.1110 h1         1 QBL       0.057700
     51 H232        -9.4310     2.1290   -54.5360 hc         1 QBL       0.052200
     52 H231       -11.1870     2.2160   -54.6350 hc         1 QBL       0.052200
     53 H242       -11.4890     0.0410   -53.7330 hc         1 QBL       0.053200
     54 H241       -10.0680    -0.1590   -54.7450 hc         1 QBL       0.053200
     55 Cl1         -8.8100    -3.9040   -51.1740 cl         1 QBL      -0.207000
@<TRIPOS>BOND
     1     1     7 ar  
     2     1    11 ar  
     3     2     8 ar  
     4     2     9 ar  
     5     2    32 1   
     6     3     4 1   
     7     3    25 1   
     8     3    29 1   
     9     4     5 ar  
    10     4     9 ar  
    11     5     6 1   
    12     5    24 ar  
    13     6    10 ar  
    14     6    12 ar  
    15     7    10 ar  
    16     7    33 1   
    17     8    24 ar  
    18     8    55 1   
    19     9    31 1   
    20    10    34 1   
    21    11    12 ar  
    22    11    23 1   
    23    12    13 1   
    24    13    14 1   
    25    14    15 1   
    26    14    23 2   
    27    15    16 1   
    28    15    35 1   
    29    15    36 1   
    30    16    17 1   
    31    16    21 1   
    32    17    18 2   
    33    17    19 1   
    34    19    20 1   
    35    19    37 1   
    36    19    38 1   
    37    20    21 1   
    38    20    39 1   
    39    20    40 1   
    40    21    22 2   
    41    23    41 1   
    42    24    42 1   
    43    25    26 1   
    44    25    28 1   
    45    25    43 1   
    46    26    27 1   
    47    26    44 1   
    48    26    45 1   
    49    27    28 1   
    50    27    46 1   
    51    28    47 1   
    52    28    48 1   
    53    29    30 1   
    54    29    49 1   
    55    29    50 1   
    56    30    31 1   
    57    30    51 1   
    58    30    52 1   
    59    31    53 1   
    60    31    54 1   
@<TRIPOS>SUBSTRUCTURE
     1 QBL         1 TEMP              0 ****  ****    0 ROOT
