@<TRIPOS>MOLECULE
QBL
   55    60     1     0     0
SMALL
abcg2


@<TRIPOS>ATOM
      1 N1          -7.5270     2.3710   -46.9070 nb         1 QBL      -0.630000
      2 C2          -9.3560    -1.4800   -52.5840 ca         1 QBL      -0.070000
      3 N3          -9.1470     2.1100   -51.6820 nh         1 QBL      -0.798400
      4 C4          -9.0420     0.7160   -51.6140 ca         1 QBL       0.323000
      5 C5          -8.4710     0.1020   -50.4750 cp         1 QBL      -0.085000
      6 C6          -8.1330     0.8850   -49.2610 cp         1 QBL       0.039000
      7 C8          -8.7630     2.2890   -47.3960 ca         1 QBL       0.329900
      8 C1          -8.7290    -2.0560   -51.4930 ca         1 QBL       0.097000
      9 C3          -9.5180    -0.0990   -52.6610 ca         1 QBL      -0.122300
     10 C7          -9.1050     1.5810   -48.5500 ca         1 QBL      -0.131000
     11 C9          -6.5700     1.7130   -47.5810 ca         1 QBL       0.359800
     12 C10         -6.8400     0.9540   -48.7440 ca         1 QBL      -0.215000
     13 S1          -5.3880     0.2590   -49.4000 ss         1 QBL       0.087400
     14 C11         -4.4290     0.9890   -48.1290 cc         1 QBL      -0.081600
     15 C12         -2.9420     0.8080   -48.1120 c3         1 QBL       0.173200
     16 N2          -2.2920     1.5280   -49.2030 n          1 QBL      -0.394400
     17 C13         -2.0140     0.9550   -50.4340 c          1 QBL       0.564000
     18 O1          -2.2630    -0.1990   -50.7150 o          1 QBL      -0.498500
     19 C14         -1.3780     2.0070   -51.3130 c5         1 QBL      -0.163400
     20 C15         -1.3380     3.2730   -50.4530 c5         1 QBL      -0.163400
     21 C16         -1.9420     2.8680   -49.1270 c          1 QBL       0.564000
     22 O2          -2.1100     3.5560   -48.1430 o          1 QBL      -0.498500
     23 C17         -5.1730     1.7080   -47.2540 cd         1 QBL      -0.254800
     24 C18         -8.2900    -1.2780   -50.4350 ca         1 QBL      -0.062000
     25 C19         -7.9510     2.9020   -51.4660 cy         1 QBL       0.172500
     26 C20         -8.0090     4.2040   -50.6450 cy         1 QBL       0.097300
     27 N4          -7.0570     4.8620   -51.6000 n6         1 QBL      -0.804400
     28 C21         -7.2990     3.7590   -52.5880 cy         1 QBL       0.097300
     29 C22        -10.1440     2.6320   -52.6120 c6         1 QBL       0.203800
     30 C23         -9.9930     1.9990   -53.9920 c6         1 QBL      -0.107400
     31 C24        -10.2070     0.4940   -53.8690 c6         1 QBL      -0.026100
     32 H2          -9.7050    -2.1010   -53.3990 ha         1 QBL       0.128000
     33 H8          -9.5340     2.8200   -46.8480 h4         1 QBL       0.024100
     34 H7         -10.1310     1.5780   -48.8920 ha         1 QBL       0.134000
     35 H122        -2.6690    -0.2410   -48.2130 h1         1 QBL       0.081700
     36 H121        -2.5440     1.1900   -47.1750 h1         1 QBL       0.081700
     37 H141        -0.3890     1.6610   -51.6140 hc         1 QBL       0.087950
     38 H142        -1.9790     2.1170   -52.2150 hc         1 QBL       0.087950
     39 H151        -0.3290     3.6480   -50.2800 hc         1 QBL       0.087950
     40 H152        -1.9280     4.0910   -50.8670 hc         1 QBL       0.087950
     41 H17         -4.7560     2.2360   -46.4080 ha         1 QBL       0.225000
     42 H18         -7.8490    -1.7390   -49.5620 ha         1 QBL       0.138000
     43 H19         -7.1840     2.2530   -51.0550 h1         1 QBL       0.069700
     44 H202        -7.6720     4.1530   -49.6090 h1         1 QBL       0.063700
     45 H201        -8.9880     4.6870   -50.6830 h1         1 QBL       0.063700
     46 HN4         -6.1160     4.7650   -51.2330 hn         1 QBL       0.392000
     47 H212        -7.9960     4.0880   -53.3580 h1         1 QBL       0.063700
     48 H211        -6.4070     3.3520   -53.0640 h1         1 QBL       0.063700
     49 H222       -10.0500     3.7150   -52.6520 h1         1 QBL       0.057700
     50 H221       -11.1410     2.4130   -52.2170 h1         1 QBL       0.057700
     51 H232        -8.9920     2.2110   -54.3760 hc         1 QBL       0.052200
     52 H231       -10.7120     2.4290   -54.6930 hc         1 QBL       0.052200
     53 H242       -11.2810     0.2920   -53.7820 hc         1 QBL       0.053200
     54 H241        -9.8710    -0.0240   -54.7690 hc         1 QBL       0.053200
     55 CL1         -8.5100    -3.7960   -51.4340 cl         1 QBL      -0.207000
@<TRIPOS>BOND
     1     1     7 ar  
     2     1    11 ar  
     3     2     8 ar  
     4     2     9 ar  
     5     2    32 1   
     6     3     4 1   
     7     3    25 1   
     8     3    29 1   
     9     4     5 ar  
    10     4     9 ar  
    11     5     6 1   
    12     5    24 ar  
    13     6    10 ar  
    14     6    12 ar  
    15     7    10 ar  
    16     7    33 1   
    17     8    24 ar  
    18     8    55 1   
    19     9    31 1   
    20    10    34 1   
    21    11    12 ar  
    22    11    23 1   
    23    12    13 1   
    24    13    14 1   
    25    14    15 1   
    26    14    23 2   
    27    15    16 1   
    28    15    35 1   
    29    15    36 1   
    30    16    17 1   
    31    16    21 1   
    32    17    18 2   
    33    17    19 1   
    34    19    20 1   
    35    19    37 1   
    36    19    38 1   
    37    20    21 1   
    38    20    39 1   
    39    20    40 1   
    40    21    22 2   
    41    23    41 1   
    42    24    42 1   
    43    25    26 1   
    44    25    28 1   
    45    25    43 1   
    46    26    27 1   
    47    26    44 1   
    48    26    45 1   
    49    27    28 1   
    50    27    46 1   
    51    28    47 1   
    52    28    48 1   
    53    29    30 1   
    54    29    49 1   
    55    29    50 1   
    56    30    31 1   
    57    30    51 1   
    58    30    52 1   
    59    31    53 1   
    60    31    54 1   
@<TRIPOS>SUBSTRUCTURE
     1 QBL         1 TEMP              0 ****  ****    0 ROOT
