@<TRIPOS>MOLECULE
QBM
   23    23     1     0     0
SMALL
No Charge or Current Charge


@<TRIPOS>ATOM
      1 C12        -17.4440    15.9650   -23.8290 c3         1 QBM      -0.090100
      2 C11        -17.0220    14.5250   -23.4790 c3         1 QBM      -0.070400
      3 C10        -15.5840    14.4390   -22.9260 c3         1 QBM       0.040600
      4 C02        -17.2650    12.7390   -19.2550 ca         1 QBM       0.329300
      5 C05        -17.8320    11.4350   -19.2500 ca         1 QBM       0.232300
      6 C09        -18.7650    10.9450   -18.1510 c3         1 QBM      -0.131400
      7 N04        -17.5460    10.5690   -20.2520 nb         1 QBM      -0.267000
      8 N06        -16.7230    10.9720   -21.2430 nb         1 QBM      -0.095000
      9 C03        -16.2060    12.2230   -21.2160 ca         1 QBM       0.201300
     10 N01        -16.4430    13.1350   -20.2470 nb         1 QBM      -0.269000
     11 S07        -15.1170    12.6870   -22.5550 ss         1 QBM      -0.292300
     12 H121       -18.4690    15.9790   -24.2190 hc         1 QBM       0.034700
     13 H123       -17.4060    16.6070   -22.9410 hc         1 QBM       0.034700
     14 H122       -16.7800    16.3890   -24.5930 hc         1 QBM       0.034700
     15 H112       -17.7250    14.1180   -22.7430 hc         1 QBM       0.051200
     16 H111       -17.1010    13.9000   -24.3770 hc         1 QBM       0.051200
     17 H102       -14.8820    14.8380   -23.6700 h1         1 QBM       0.077700
     18 H101       -15.4920    15.0430   -22.0140 h1         1 QBM       0.077700
     19 HO08       -17.0080    14.4600   -18.4970 ho         1 QBM       0.494000
     20 H091       -19.0980     9.9150   -18.3270 hc         1 QBM       0.059367
     21 H093       -18.2640    10.9710   -17.1760 hc         1 QBM       0.059367
     22 H092       -19.6570    11.5780   -18.0880 hc         1 QBM       0.059367
     23 O08        -17.5160    13.6520   -18.2690 oh         1 QBM      -0.621300
@<TRIPOS>BOND
     1     1     2 1   
     2     1    12 1   
     3     1    13 1   
     4     1    14 1   
     5     2     3 1   
     6     2    15 1   
     7     2    16 1   
     8     3    11 1   
     9     3    17 1   
    10     3    18 1   
    11     4     5 ar  
    12     4    10 ar  
    13     4    23 1   
    14     5     6 1   
    15     5     7 ar  
    16     6    20 1   
    17     6    21 1   
    18     6    22 1   
    19     7     8 ar  
    20     8     9 ar  
    21     9    10 ar  
    22     9    11 1   
    23    19    23 1   
@<TRIPOS>SUBSTRUCTURE
     1 QBM         1 TEMP              0 ****  ****    0 ROOT
