@<TRIPOS>MOLECULE
QBM
   23    23     1     0     0
SMALL
abcg2


@<TRIPOS>ATOM
      1 C12        -17.1190    16.1900   -23.6800 c3         1 QBM      -0.090100
      2 C11        -17.0550    14.6820   -23.4740 c3         1 QBM      -0.070400
      3 C10        -15.6980    14.2570   -22.9380 c3         1 QBM       0.040600
      4 C02        -17.6320    12.7190   -19.5470 ca         1 QBM       0.329300
      5 C05        -17.7220    11.3530   -19.1750 ca         1 QBM       0.232300
      6 C09        -18.4660    10.9060   -17.9640 c3         1 QBM      -0.131400
      7 N04        -17.1260    10.4640   -19.9310 nb         1 QBM      -0.267000
      8 N06        -16.4640    10.8220   -21.0160 nb         1 QBM      -0.095000
      9 C03        -16.4130    12.1060   -21.3120 ca         1 QBM       0.201300
     10 N01        -16.9720    13.0880   -20.6110 nb         1 QBM      -0.269000
     11 S07        -15.4980    12.4630   -22.7610 ss         1 QBM      -0.292300
     12 H121       -18.0970    16.4880   -24.0580 hc         1 QBM       0.034700
     13 H123       -16.9470    16.7280   -22.7460 hc         1 QBM       0.034700
     14 H122       -16.3700    16.5240   -24.3990 hc         1 QBM       0.034700
     15 H112       -17.8360    14.3710   -22.7780 hc         1 QBM       0.051200
     16 H111       -17.2500    14.1700   -24.4180 hc         1 QBM       0.051200
     17 H102       -14.9040    14.5400   -23.6330 h1         1 QBM       0.077700
     18 H101       -15.4750    14.7300   -21.9820 h1         1 QBM       0.077700
     19 HO08       -18.0900    14.5010   -19.1540 ho         1 QBM       0.494000
     20 H091       -18.3800     9.8270   -17.8550 hc         1 QBM       0.059367
     21 H093       -18.0770    11.3780   -17.0620 hc         1 QBM       0.059367
     22 H092       -19.5250    11.1620   -18.0340 hc         1 QBM       0.059367
     23 O08        -18.2280    13.6140   -18.7910 oh         1 QBM      -0.621300
@<TRIPOS>BOND
     1     1     2 1   
     2     1    12 1   
     3     1    13 1   
     4     1    14 1   
     5     2     3 1   
     6     2    15 1   
     7     2    16 1   
     8     3    11 1   
     9     3    17 1   
    10     3    18 1   
    11     4     5 ar  
    12     4    10 ar  
    13     4    23 1   
    14     5     6 1   
    15     5     7 ar  
    16     6    20 1   
    17     6    21 1   
    18     6    22 1   
    19     7     8 ar  
    20     8     9 ar  
    21     9    10 ar  
    22     9    11 1   
    23    19    23 1   
@<TRIPOS>SUBSTRUCTURE
     1 QBM         1 TEMP              0 ****  ****    0 ROOT
