@<TRIPOS>MOLECULE
QBN
   54    56     1     0     0
SMALL
No Charge or Current Charge


@<TRIPOS>ATOM
      1 N1          16.7100    -7.7240    44.4160 n7         1 QBN      -0.853400
      2 C5          12.5260    -0.7820    46.3580 ca         1 QBN      -0.051800
      3 C6          12.0340    -0.5050    47.6500 ca         1 QBN      -0.096500
      4 C7          10.6790    -0.1850    47.8450 ca         1 QBN      -0.114000
      5 C8           9.8010    -0.1460    46.7500 ca         1 QBN      -0.108000
      6 C10         11.6330    -0.7520    45.2660 ca         1 QBN      -0.096500
      7 C13         15.0610    -3.8420    43.7060 ca         1 QBN      -0.173500
      8 C15         13.4140    -4.7880    45.2180 ca         1 QBN      -0.173500
      9 C17         15.4050    -6.5610    42.6030 c3         1 QBN       0.161600
     10 C20         16.4450    -0.7820    46.3390 ca         1 QBN      -0.050800
     11 C21         16.9010    -1.9620    46.9590 ca         1 QBN      -0.097500
     12 C22         18.2330    -2.3810    46.8020 ca         1 QBN      -0.113500
     13 C24         18.6750    -0.4430    45.4010 ca         1 QBN      -0.113500
     14 C1          15.3190     1.0770    48.6130 c3         1 QBN      -0.085100
     15 C2          14.8630     1.0280    47.1410 c3         1 QBN      -0.037200
     16 C3          15.0230    -0.3570    46.5080 ce         1 QBN      -0.042400
     17 C9          10.2780    -0.4320    45.4600 ca         1 QBN      -0.114000
     18 C11         14.0670    -2.4440    45.4530 ca         1 QBN      -0.087800
     19 C12         14.9420    -2.6030    44.3580 ca         1 QBN      -0.059500
     20 C14         14.3010    -4.9470    44.1440 ca         1 QBN       0.137100
     21 C16         13.2950    -3.5490    45.8700 ca         1 QBN      -0.059500
     22 O1          14.3740    -6.1930    43.5500 os         1 QBN      -0.348100
     23 C18         16.7670    -6.7040    43.3400 c3         1 QBN       0.120800
     24 C19         17.9270    -7.8350    45.2410 c3         1 QBN       0.142100
     25 C23         19.1210    -1.6210    46.0230 ca         1 QBN      -0.111000
     26 C25         17.3410    -0.0250    45.5570 ca         1 QBN      -0.097500
     27 H1          15.9250    -7.4730    45.0330 hn         1 QBN       0.418000
     28 H3          12.7000    -0.5510    48.5070 ha         1 QBN       0.116500
     29 H4          10.3100     0.0280    48.8460 ha         1 QBN       0.112500
     30 H5           8.7520     0.1010    46.9000 ha         1 QBN       0.112000
     31 H6          11.9930    -0.9710    44.2640 ha         1 QBN       0.116500
     32 H7          15.7410    -3.9200    42.8640 ha         1 QBN       0.122000
     33 H8          12.8190    -5.6330    45.5540 ha         1 QBN       0.122000
     34 H9          15.4850    -5.8280    41.7910 h1         1 QBN       0.061200
     35 H10         15.1590    -7.5260    42.1430 h1         1 QBN       0.061200
     36 H11         16.2180    -2.5560    47.5630 ha         1 QBN       0.115000
     37 H12         18.5760    -3.2940    47.2840 ha         1 QBN       0.111000
     38 H13         19.3600     0.1450    44.7940 ha         1 QBN       0.111000
     39 H14         15.1510     2.0770    49.0310 hc         1 QBN       0.034700
     40 H15         14.7650     0.3520    49.2200 hc         1 QBN       0.034700
     41 H16         16.3880     0.8480    48.6960 hc         1 QBN       0.034700
     42 H17         15.4440     1.7680    46.5790 hc         1 QBN       0.050200
     43 H18         13.8300     1.3860    47.0800 hc         1 QBN       0.050200
     44 H19          9.5990    -0.4060    44.6110 ha         1 QBN       0.112500
     45 H20         15.5270    -1.7590    44.0000 ha         1 QBN       0.117500
     46 H21         12.6110    -3.4530    46.7100 ha         1 QBN       0.117500
     47 H22         17.5350    -6.9750    42.6030 h1         1 QBN       0.039200
     48 H23         17.0510    -5.7280    43.7570 h1         1 QBN       0.039200
     49 H24         17.8030    -8.6100    46.0090 h1         1 QBN       0.029367
     50 H25         18.7950    -8.1030    44.6240 h1         1 QBN       0.029367
     51 H26         18.1450    -6.8840    45.7470 h1         1 QBN       0.029367
     52 H27         20.1520    -1.9440    45.9000 ha         1 QBN       0.111000
     53 H28         17.0040     0.8810    45.0610 ha         1 QBN       0.115000
     54 C4          13.9490    -1.1360    46.1470 cf         1 QBN       0.001600
@<TRIPOS>BOND
     1     1    23 1   
     2     1    24 1   
     3     1    27 1   
     4     2     3 ar  
     5     2     6 ar  
     6     2    54 1   
     7     3     4 ar  
     8     3    28 1   
     9     4     5 ar  
    10     4    29 1   
    11     5    17 ar  
    12     5    30 1   
    13     6    17 ar  
    14     6    31 1   
    15     7    19 ar  
    16     7    20 ar  
    17     7    32 1   
    18     8    20 ar  
    19     8    21 ar  
    20     8    33 1   
    21     9    22 1   
    22     9    23 1   
    23     9    34 1   
    24     9    35 1   
    25    10    11 ar  
    26    10    16 1   
    27    10    26 ar  
    28    11    12 ar  
    29    11    36 1   
    30    12    25 ar  
    31    12    37 1   
    32    13    25 ar  
    33    13    26 ar  
    34    13    38 1   
    35    14    15 1   
    36    14    39 1   
    37    14    40 1   
    38    14    41 1   
    39    15    16 1   
    40    15    42 1   
    41    15    43 1   
    42    16    54 2   
    43    17    44 1   
    44    18    19 ar  
    45    18    21 ar  
    46    18    54 1   
    47    19    45 1   
    48    20    22 1   
    49    21    46 1   
    50    23    47 1   
    51    23    48 1   
    52    24    49 1   
    53    24    50 1   
    54    24    51 1   
    55    25    52 1   
    56    26    53 1   
@<TRIPOS>SUBSTRUCTURE
     1 QBN         1 TEMP              0 ****  ****    0 ROOT
