@<TRIPOS>MOLECULE
QBN
   54    56     1     0     0
SMALL
bcc


@<TRIPOS>ATOM
      1 N1          16.9380    -7.4730    44.4690 n7         1 QBN      -0.798200
      2 C5          12.4810    -0.7240    46.3480 ca         1 QBN      -0.051800
      3 C6          12.0180    -0.4470    47.6340 ca         1 QBN      -0.114500
      4 C7          10.7020    -0.0600    47.8480 ca         1 QBN      -0.132000
      5 C8           9.8260     0.0550    46.7770 ca         1 QBN      -0.126000
      6 C10         11.5850    -0.6250    45.2820 ca         1 QBN      -0.114500
      7 C13         14.9340    -3.8520    43.6520 ca         1 QBN      -0.191500
      8 C15         13.5100    -4.8390    45.3180 ca         1 QBN      -0.191500
      9 C17         15.4500    -6.5360    42.7550 c3         1 QBN       0.138400
     10 C20         16.3250    -0.9790    46.3500 ca         1 QBN      -0.050800
     11 C21         16.6660    -2.1800    46.9740 ca         1 QBN      -0.115500
     12 C22         17.9490    -2.6950    46.8750 ca         1 QBN      -0.131500
     13 C24         18.5990    -0.8120    45.5380 ca         1 QBN      -0.131500
     14 C1          15.3320     1.0660    48.4740 c3         1 QBN      -0.085100
     15 C2          14.8630     0.9650    47.0250 c3         1 QBN      -0.037200
     16 C3          14.9490    -0.4330    46.4680 ce         1 QBN      -0.042400
     17 C9          10.2720    -0.2300    45.4920 ca         1 QBN      -0.132000
     18 C11         14.0070    -2.4720    45.4210 ca         1 QBN      -0.087800
     19 C12         14.7750    -2.6210    44.2710 ca         1 QBN      -0.077500
     20 C14         14.3170    -4.9810    44.1880 ca         1 QBN       0.137100
     21 C16         13.3510    -3.6020    45.9120 ca         1 QBN      -0.077500
     22 O1          14.4140    -6.2270    43.6780 os         1 QBN      -0.324900
     23 C18         16.8310    -6.5220    43.3820 c3         1 QBN       0.120800
     24 C19         18.2550    -7.4600    45.0750 c3         1 QBN       0.142100
     25 C23         18.9210    -2.0150    46.1520 ca         1 QBN      -0.129000
     26 C25         17.3140    -0.2950    45.6440 ca         1 QBN      -0.115500
     27 H1          16.2540    -7.2450    45.1800 hn         1 QBN       0.362800
     28 H3          12.6920    -0.5480    48.4760 ha         1 QBN       0.134500
     29 H4          10.3600     0.1470    48.8540 ha         1 QBN       0.130500
     30 H5           8.8000     0.3560    46.9420 ha         1 QBN       0.130000
     31 H6          11.9230    -0.8530    44.2790 ha         1 QBN       0.134500
     32 H7          15.5390    -3.9080    42.7570 ha         1 QBN       0.140000
     33 H8          13.0160    -5.7100    45.7300 ha         1 QBN       0.140000
     34 H9          15.4220    -5.8710    41.8870 h1         1 QBN       0.061200
     35 H10         15.2180    -7.5400    42.4020 h1         1 QBN       0.061200
     36 H11         15.9160    -2.7150    47.5430 ha         1 QBN       0.133000
     37 H12         18.1920    -3.6290    47.3670 ha         1 QBN       0.129000
     38 H13         19.3480    -0.2740    44.9720 ha         1 QBN       0.129000
     39 H14         15.2730     2.0960    48.8250 hc         1 QBN       0.034700
     40 H15         14.7150     0.4530    49.1330 hc         1 QBN       0.034700
     41 H16         16.3660     0.7370    48.5880 hc         1 QBN       0.034700
     42 H17         15.4890     1.6200    46.4100 hc         1 QBN       0.050200
     43 H18         13.8480     1.3500    46.9350 hc         1 QBN       0.050200
     44 H19          9.5950    -0.1470    44.6510 ha         1 QBN       0.130500
     45 H20         15.2690    -1.7570    43.8440 ha         1 QBN       0.135500
     46 H21         12.7250    -3.5190    46.7930 ha         1 QBN       0.135500
     47 H22         17.5380    -6.8070    42.5960 h1         1 QBN       0.039200
     48 H23         17.1100    -5.5000    43.6830 h1         1 QBN       0.039200
     49 H24         18.2750    -8.1340    45.9310 h1         1 QBN       0.029367
     50 H25         18.9970    -7.8150    44.3580 h1         1 QBN       0.029367
     51 H26         18.5800    -6.4680    45.4190 h1         1 QBN       0.029367
     52 H27         19.9230    -2.4180    46.0710 ha         1 QBN       0.129000
     53 H28         17.0770     0.6400    45.1510 ha         1 QBN       0.133000
     54 C4          13.8770    -1.1650    46.1070 cf         1 QBN       0.001600
@<TRIPOS>BOND
     1     1    23 1   
     2     1    24 1   
     3     1    27 1   
     4     2     3 ar  
     5     2     6 ar  
     6     2    54 1   
     7     3     4 ar  
     8     3    28 1   
     9     4     5 ar  
    10     4    29 1   
    11     5    17 ar  
    12     5    30 1   
    13     6    17 ar  
    14     6    31 1   
    15     7    19 ar  
    16     7    20 ar  
    17     7    32 1   
    18     8    20 ar  
    19     8    21 ar  
    20     8    33 1   
    21     9    22 1   
    22     9    23 1   
    23     9    34 1   
    24     9    35 1   
    25    10    11 ar  
    26    10    16 1   
    27    10    26 ar  
    28    11    12 ar  
    29    11    36 1   
    30    12    25 ar  
    31    12    37 1   
    32    13    25 ar  
    33    13    26 ar  
    34    13    38 1   
    35    14    15 1   
    36    14    39 1   
    37    14    40 1   
    38    14    41 1   
    39    15    16 1   
    40    15    42 1   
    41    15    43 1   
    42    16    54 2   
    43    17    44 1   
    44    18    19 ar  
    45    18    21 ar  
    46    18    54 1   
    47    19    45 1   
    48    20    22 1   
    49    21    46 1   
    50    23    47 1   
    51    23    48 1   
    52    24    49 1   
    53    24    50 1   
    54    24    51 1   
    55    25    52 1   
    56    26    53 1   
@<TRIPOS>SUBSTRUCTURE
     1 QBN         1 TEMP              0 ****  ****    0 ROOT
