@<TRIPOS>MOLECULE
QBO
   68    72     1     0     0
SMALL
abcg2


@<TRIPOS>ATOM
      1 OBB         -9.4690    31.1940   -11.9430 o          1 QBO      -0.743500
      2 CBE         -9.9210    32.1280   -11.2270 c          1 QBO       0.703000
      3 OBD         -9.8900    33.3550   -11.5140 o          1 QBO      -0.743500
      4 CAY        -10.6100    31.7300    -9.9130 c3         1 QBO      -0.197400
      5 CAL        -12.1050    31.4750   -10.1410 c3         1 QBO      -0.062400
      6 CAH        -12.8480    31.0530    -8.8610 c3         1 QBO      -0.054700
      7 CAI        -13.0940    32.2680    -7.9590 c3         1 QBO      -0.080100
      8 CAM        -14.1880    30.3140    -9.0910 c5         1 QBO      -0.050700
      9 CAE        -15.0370    30.8020   -10.2800 c5         1 QBO      -0.080400
     10 CAF        -15.9030    29.6010   -10.7110 c5         1 QBO      -0.076400
     11 CAN        -15.6160    28.4670    -9.7050 c5         1 QBO      -0.080700
     12 CAU        -14.1520    28.7750    -9.2760 c5         1 QBO       0.115000
     13 CAS        -13.1020    28.3220   -10.2910 c3         1 QBO      -0.099100
     14 NBC        -13.8800    28.1090    -7.9820 na         1 QBO      -0.073700
     15 NAT        -13.4670    28.7540    -6.8750 nc         1 QBO      -0.189800
     16 NAO        -13.3610    27.8660    -5.9470 nd         1 QBO      -0.067000
     17 NAW        -13.6990    26.6420    -6.4120 nd         1 QBO      -0.417000
     18 CAZ        -14.0210    26.8070    -7.6850 cc         1 QBO       0.393800
     19 CAV        -14.4850    25.7450    -8.6050 c3         1 QBO      -0.110700
     20 CAG        -15.9180    25.9470    -9.1450 c6         1 QBO      -0.041700
     21 CAA        -15.9910    27.0600   -10.2270 c6         1 QBO      -0.045700
     22 CAC        -17.4030    27.1440   -10.8350 c6         1 QBO      -0.074400
     23 CAD        -17.9510    25.8020   -11.3030 c6         1 QBO      -0.068400
     24 CAB        -17.9290    24.7610   -10.1880 c6         1 QBO      -0.049700
     25 CAR        -18.9620    25.0970    -9.1010 c6         1 QBO      -0.071400
     26 CAX        -18.9830    24.0700    -7.9850 c6         1 QBO       0.168300
     27 OBA        -19.9440    24.5070    -7.0110 oh         1 QBO      -0.668000
     28 CAQ        -17.5950    23.9010    -7.3860 c6         1 QBO      -0.109400
     29 CAJ        -16.5920    23.5400    -8.4790 c6         1 QBO      -0.067400
     30 CAP        -16.4950    24.5730    -9.6270 c6         1 QBO      -0.034000
     31 CAK        -15.5920    23.9580   -10.7100 c3         1 QBO      -0.088100
     32 H2         -10.1500    30.8190    -9.5230 hc         1 QBO       0.021200
     33 H3         -10.4720    32.5260    -9.1780 hc         1 QBO       0.021200
     34 H4         -12.5650    32.3800   -10.5480 hc         1 QBO       0.038200
     35 H5         -12.2010    30.7090   -10.9100 hc         1 QBO       0.038200
     36 H6         -12.1910    30.3710    -8.3170 hc         1 QBO       0.057700
     37 H7         -13.5010    31.9620    -6.9940 hc         1 QBO       0.029033
     38 H8         -12.1720    32.8220    -7.7740 hc         1 QBO       0.029033
     39 H9         -13.8060    32.9540    -8.4250 hc         1 QBO       0.029033
     40 H10        -14.7840    30.4660    -8.1890 hc         1 QBO       0.050700
     41 H11        -14.4090    31.1280   -11.1070 hc         1 QBO       0.058200
     42 H12        -15.6450    31.6580    -9.9880 hc         1 QBO       0.058200
     43 H13        -16.9630    29.8470   -10.7300 hc         1 QBO       0.041700
     44 H14        -15.6330    29.2790   -11.7190 hc         1 QBO       0.041700
     45 H15        -16.2230    28.6510    -8.8120 hc         1 QBO       0.054700
     46 H16        -12.1050    28.6080    -9.9600 hc         1 QBO       0.058700
     47 H17        -13.1150    27.2450   -10.4390 hc         1 QBO       0.058700
     48 H18        -13.2940    28.7860   -11.2560 hc         1 QBO       0.058700
     49 H19        -14.4210    24.8220    -8.0380 hc         1 QBO       0.069700
     50 H20        -13.7860    25.6500    -9.4350 hc         1 QBO       0.069700
     51 H21        -16.5320    26.2860    -8.3070 hc         1 QBO       0.059700
     52 H22        -15.2970    26.8010   -11.0340 hc         1 QBO       0.052700
     53 H23        -17.3920    27.8320   -11.6790 hc         1 QBO       0.043200
     54 H24        -18.0770    27.5800   -10.0910 hc         1 QBO       0.043200
     55 H25        -18.9750    25.9310   -11.6660 hc         1 QBO       0.040200
     56 H26        -17.3640    25.4460   -12.1530 hc         1 QBO       0.040200
     57 H27        -18.2200    23.7940   -10.6160 hc         1 QBO       0.040700
     58 H28        -18.7580    26.0740    -8.6550 hc         1 QBO       0.054200
     59 H29        -19.9520    25.1590    -9.5600 hc         1 QBO       0.054200
     60 H30        -19.3060    23.1040    -8.3960 h1         1 QBO       0.023700
     61 H31        -19.9510    23.8660    -6.2890 ho         1 QBO       0.437000
     62 H32        -17.6130    23.1160    -6.6240 hc         1 QBO       0.050700
     63 H33        -17.3120    24.8300    -6.8820 hc         1 QBO       0.050700
     64 H34        -16.9020    22.5930    -8.9330 hc         1 QBO       0.041200
     65 H35        -15.6140    23.3450    -8.0380 hc         1 QBO       0.041200
     66 H36        -14.6360    23.6430   -10.2890 hc         1 QBO       0.035367
     67 H37        -16.0710    23.0720   -11.1330 hc         1 QBO       0.035367
     68 H38        -15.3850    24.6480   -11.5260 hc         1 QBO       0.035367
@<TRIPOS>BOND
     1     1     2 1   
     2     2     3 1   
     3     2     4 1   
     4     4     5 1   
     5     4    32 1   
     6     4    33 1   
     7     5     6 1   
     8     5    34 1   
     9     5    35 1   
    10     6     7 1   
    11     6     8 1   
    12     6    36 1   
    13     7    37 1   
    14     7    38 1   
    15     7    39 1   
    16     8     9 1   
    17     8    12 1   
    18     8    40 1   
    19     9    10 1   
    20     9    41 1   
    21     9    42 1   
    22    10    11 1   
    23    10    43 1   
    24    10    44 1   
    25    11    12 1   
    26    11    21 1   
    27    11    45 1   
    28    12    13 1   
    29    12    14 1   
    30    13    46 1   
    31    13    47 1   
    32    13    48 1   
    33    14    15 1   
    34    14    18 1   
    35    15    16 2   
    36    16    17 1   
    37    17    18 2   
    38    18    19 1   
    39    19    20 1   
    40    19    49 1   
    41    19    50 1   
    42    20    21 1   
    43    20    30 1   
    44    20    51 1   
    45    21    22 1   
    46    21    52 1   
    47    22    23 1   
    48    22    53 1   
    49    22    54 1   
    50    23    24 1   
    51    23    55 1   
    52    23    56 1   
    53    24    25 1   
    54    24    30 1   
    55    24    57 1   
    56    25    26 1   
    57    25    58 1   
    58    25    59 1   
    59    26    27 1   
    60    26    28 1   
    61    26    60 1   
    62    27    61 1   
    63    28    29 1   
    64    28    62 1   
    65    28    63 1   
    66    29    30 1   
    67    29    64 1   
    68    29    65 1   
    69    30    31 1   
    70    31    66 1   
    71    31    67 1   
    72    31    68 1   
@<TRIPOS>SUBSTRUCTURE
     1 QBO         1 TEMP              0 ****  ****    0 ROOT
