@<TRIPOS>MOLECULE
QBO
   68    72     1     0     0
SMALL
No Charge or Current Charge


@<TRIPOS>ATOM
      1 OBB         -8.9340    31.1980   -11.1350 o          1 QBO      -0.743500
      2 CBE         -9.6190    32.1680   -10.8500 c          1 QBO       0.703000
      3 OBD         -9.6480    33.1930   -11.5140 o          1 QBO      -0.743500
      4 CAY        -10.5380    32.0730    -9.6180 c3         1 QBO      -0.197400
      5 CAL        -11.9230    31.5010   -10.0240 c3         1 QBO      -0.062400
      6 CAH        -12.8920    31.2010    -8.8310 c3         1 QBO      -0.054700
      7 CAI        -13.3130    32.5270    -8.1390 c3         1 QBO      -0.080100
      8 CAM        -14.1680    30.3200    -9.1620 c5         1 QBO      -0.050700
      9 CAE        -14.9490    30.7980   -10.4220 c5         1 QBO      -0.080400
     10 CAF        -15.8230    29.5910   -10.8350 c5         1 QBO      -0.076400
     11 CAN        -15.5700    28.4720    -9.7650 c5         1 QBO      -0.080700
     12 CAU        -14.0610    28.7370    -9.3460 c5         1 QBO       0.115000
     13 CAS        -13.0420    28.3180   -10.4500 c3         1 QBO      -0.099100
     14 NBC        -13.7390    28.0230    -8.0840 na         1 QBO      -0.073700
     15 NAT        -13.2690    28.6490    -6.9690 nc         1 QBO      -0.189800
     16 NAO        -13.1380    27.7120    -6.0720 nd         1 QBO      -0.067000
     17 NAW        -13.5260    26.4940    -6.5590 nd         1 QBO      -0.417000
     18 CAZ        -13.9020    26.6950    -7.8060 cc         1 QBO       0.393800
     19 CAV        -14.4390    25.6480    -8.7270 c3         1 QBO      -0.110700
     20 CAG        -15.9220    25.8690    -9.1780 c6         1 QBO      -0.041700
     21 CAA        -16.0420    27.0330   -10.2550 c6         1 QBO      -0.045700
     22 CAC        -17.5180    27.1560   -10.7710 c6         1 QBO      -0.074400
     23 CAD        -18.1500    25.8240   -11.2160 c6         1 QBO      -0.068400
     24 CAB        -18.0810    24.7520   -10.1060 c6         1 QBO      -0.049700
     25 CAR        -19.0230    25.1200    -8.9100 c6         1 QBO      -0.071400
     26 CAX        -19.0100    24.0350    -7.8100 c6         1 QBO       0.168300
     27 OBA        -19.8230    24.4430    -6.7070 oh         1 QBO      -0.668000
     28 CAQ        -17.5660    23.7680    -7.3320 c6         1 QBO      -0.109400
     29 CAJ        -16.6610    23.3930    -8.5310 c6         1 QBO      -0.067400
     30 CAP        -16.5950    24.4980    -9.6560 c6         1 QBO      -0.034000
     31 CAK        -15.7780    23.8710   -10.8410 c3         1 QBO      -0.088100
     32 H2         -10.1200    31.3690    -8.8880 hc         1 QBO       0.021200
     33 H3         -10.7190    33.0760    -9.2130 hc         1 QBO       0.021200
     34 H4         -12.3990    32.2100   -10.7120 hc         1 QBO       0.038200
     35 H5         -11.7420    30.5930   -10.6020 hc         1 QBO       0.038200
     36 H6         -12.2890    30.6620    -8.0950 hc         1 QBO       0.057700
     37 H7         -13.9670    32.3300    -7.2810 hc         1 QBO       0.029033
     38 H8         -12.4450    33.0740    -7.7570 hc         1 QBO       0.029033
     39 H9         -13.8520    33.1790    -8.8370 hc         1 QBO       0.029033
     40 H10        -14.8300    30.4810    -8.3010 hc         1 QBO       0.050700
     41 H11        -14.2900    31.0700   -11.2520 hc         1 QBO       0.058200
     42 H12        -15.5550    31.6850   -10.2030 hc         1 QBO       0.058200
     43 H13        -16.8780    29.8830   -10.8790 hc         1 QBO       0.041700
     44 H14        -15.5500    29.2500   -11.8410 hc         1 QBO       0.041700
     45 H15        -16.2130    28.6730    -8.8980 hc         1 QBO       0.054700
     46 H16        -12.0110    28.4260   -10.0910 hc         1 QBO       0.058700
     47 H17        -13.1570    27.2750   -10.7530 hc         1 QBO       0.058700
     48 H18        -13.1430    28.9120   -11.3640 hc         1 QBO       0.058700
     49 H19        -14.3240    24.7030    -8.1950 hc         1 QBO       0.069700
     50 H20        -13.7820    25.5440    -9.5940 hc         1 QBO       0.069700
     51 H21        -16.4480    26.2130    -8.2780 hc         1 QBO       0.059700
     52 H22        -15.4240    26.7630   -11.1210 hc         1 QBO       0.052700
     53 H23        -17.5630    27.8230   -11.6410 hc         1 QBO       0.043200
     54 H24        -18.1460    27.6290   -10.0040 hc         1 QBO       0.043200
     55 H25        -19.1970    25.9950   -11.5020 hc         1 QBO       0.040200
     56 H26        -17.6550    25.4660   -12.1290 hc         1 QBO       0.040200
     57 H27        -18.4710    23.8200   -10.5390 hc         1 QBO       0.040700
     58 H28        -18.7420    26.0820    -8.4650 hc         1 QBO       0.054200
     59 H29        -20.0500    25.2440    -9.2780 hc         1 QBO       0.054200
     60 H30        -19.4110    23.1050    -8.2390 h1         1 QBO       0.023700
     61 H31        -19.8110    23.7030    -6.0620 ho         1 QBO       0.437000
     62 H32        -17.5650    22.9420    -6.6060 hc         1 QBO       0.050700
     63 H33        -17.1640    24.6420    -6.8020 hc         1 QBO       0.050700
     64 H34        -17.0600    22.4670    -8.9710 hc         1 QBO       0.041200
     65 H35        -15.6690    23.1050    -8.1680 hc         1 QBO       0.041200
     66 H36        -14.7930    23.5200   -10.5130 hc         1 QBO       0.035367
     67 H37        -16.2950    23.0020   -11.2650 hc         1 QBO       0.035367
     68 H38        -15.6070    24.5730   -11.6640 hc         1 QBO       0.035367
@<TRIPOS>BOND
     1     1     2 1   
     2     2     3 1   
     3     2     4 1   
     4     4     5 1   
     5     4    32 1   
     6     4    33 1   
     7     5     6 1   
     8     5    34 1   
     9     5    35 1   
    10     6     7 1   
    11     6     8 1   
    12     6    36 1   
    13     7    37 1   
    14     7    38 1   
    15     7    39 1   
    16     8     9 1   
    17     8    12 1   
    18     8    40 1   
    19     9    10 1   
    20     9    41 1   
    21     9    42 1   
    22    10    11 1   
    23    10    43 1   
    24    10    44 1   
    25    11    12 1   
    26    11    21 1   
    27    11    45 1   
    28    12    13 1   
    29    12    14 1   
    30    13    46 1   
    31    13    47 1   
    32    13    48 1   
    33    14    15 1   
    34    14    18 1   
    35    15    16 2   
    36    16    17 1   
    37    17    18 2   
    38    18    19 1   
    39    19    20 1   
    40    19    49 1   
    41    19    50 1   
    42    20    21 1   
    43    20    30 1   
    44    20    51 1   
    45    21    22 1   
    46    21    52 1   
    47    22    23 1   
    48    22    53 1   
    49    22    54 1   
    50    23    24 1   
    51    23    55 1   
    52    23    56 1   
    53    24    25 1   
    54    24    30 1   
    55    24    57 1   
    56    25    26 1   
    57    25    58 1   
    58    25    59 1   
    59    26    27 1   
    60    26    28 1   
    61    26    60 1   
    62    27    61 1   
    63    28    29 1   
    64    28    62 1   
    65    28    63 1   
    66    29    30 1   
    67    29    64 1   
    68    29    65 1   
    69    30    31 1   
    70    31    66 1   
    71    31    67 1   
    72    31    68 1   
@<TRIPOS>SUBSTRUCTURE
     1 QBO         1 TEMP              0 ****  ****    0 ROOT
