@<TRIPOS>MOLECULE
QBP
   20    21     1     0     0
SMALL
bcc


@<TRIPOS>ATOM
      1 C14        -21.7580     7.2310   -17.1600 c3         1 QBP       0.721200
      2 C9         -19.8220    12.1270   -19.4290 cc         1 QBP       0.448000
      3 C4         -20.3930     9.7170   -19.6370 ca         1 QBP      -0.103500
      4 C5         -20.3220    10.8780   -18.8710 ca         1 QBP      -0.111500
      5 C6         -20.7410    10.8500   -17.5430 ca         1 QBP      -0.103500
      6 C3         -20.8710     8.5440   -19.0820 ca         1 QBP      -0.079500
      7 C2         -21.2860     8.5220   -17.7550 ca         1 QBP      -0.178300
      8 C1         -21.2190     9.6770   -16.9860 ca         1 QBP      -0.079500
      9 F15        -22.5370     6.5460   -18.0050 f          1 QBP      -0.231300
     10 F16        -22.4570     7.4110   -16.0370 f          1 QBP      -0.231300
     11 F17        -20.7250     6.4310   -16.8550 f          1 QBP      -0.231300
     12 N10        -19.2550    12.2960   -20.6270 na         1 QBP      -0.158400
     13 N11        -18.9280    13.5670   -20.7750 nc         1 QBP      -0.196800
     14 N12        -19.2850    14.1580   -19.7030 nd         1 QBP      -0.036000
     15 N13        -19.8410    13.3050   -18.8480 nd         1 QBP      -0.379000
     16 H4         -20.0870     9.7080   -20.6740 ha         1 QBP       0.150500
     17 H6         -20.6920    11.7440   -16.9370 ha         1 QBP       0.150500
     18 H3         -20.9170     7.6570   -19.6980 ha         1 QBP       0.156000
     19 H1         -21.5340     9.6810   -15.9520 ha         1 QBP       0.156000
     20 H2         -19.0460    11.6300   -21.3580 hn         1 QBP       0.338700
@<TRIPOS>BOND
     1     1     7 1   
     2     1     9 1   
     3     1    10 1   
     4     1    11 1   
     5     2     4 1   
     6     2    12 1   
     7     2    15 2   
     8     3     4 ar  
     9     3     6 ar  
    10     3    16 1   
    11     4     5 ar  
    12     5     8 ar  
    13     5    17 1   
    14     6     7 ar  
    15     6    18 1   
    16     7     8 ar  
    17     8    19 1   
    18    12    13 1   
    19    12    20 1   
    20    13    14 2   
    21    14    15 1   
@<TRIPOS>SUBSTRUCTURE
     1 QBP         1 TEMP              0 ****  ****    0 ROOT
