@<TRIPOS>MOLECULE
QBP
   20    21     1     0     0
SMALL
No Charge or Current Charge


@<TRIPOS>ATOM
      1 C14        -21.8000     7.1710   -17.1390 c3         1 QBP       0.357300
      2 C9         -19.7850    12.1680   -19.4260 cc         1 QBP       0.448000
      3 C4         -20.3590     9.7290   -19.6370 ca         1 QBP      -0.085500
      4 C5         -20.2920    10.9070   -18.8610 ca         1 QBP      -0.111500
      5 C6         -20.7200    10.8510   -17.5160 ca         1 QBP      -0.085500
      6 C3         -20.8450     8.5310   -19.0850 ca         1 QBP      -0.061500
      7 C2         -21.2810     8.4810   -17.7440 ca         1 QBP      -0.178300
      8 C1         -21.2060     9.6530   -16.9630 ca         1 QBP      -0.061500
      9 F15        -22.3990     6.3810   -18.0600 f          1 QBP      -0.110000
     10 F16        -22.7110     7.3810   -16.1620 f          1 QBP      -0.110000
     11 F17        -20.7950     6.4500   -16.5940 f          1 QBP      -0.110000
     12 N10        -19.3440    12.3640   -20.7040 na         1 QBP      -0.208700
     13 N11        -18.9490    13.6500   -20.8790 nc         1 QBP      -0.196800
     14 N12        -19.1530    14.2140   -19.7200 nd         1 QBP      -0.036000
     15 N13        -19.6680    13.3250   -18.8050 nd         1 QBP      -0.379000
     16 H4         -20.0350     9.7260   -20.6750 ha         1 QBP       0.132500
     17 H6         -20.6770    11.7380   -16.8880 ha         1 QBP       0.132500
     18 H3         -20.8770     7.6380   -19.7070 ha         1 QBP       0.138000
     19 H1         -21.5210     9.6430   -15.9220 ha         1 QBP       0.138000
     20 H2         -19.3000    11.6780   -21.4460 hn         1 QBP       0.389000
@<TRIPOS>BOND
     1     1     7 1   
     2     1     9 1   
     3     1    10 1   
     4     1    11 1   
     5     2     4 1   
     6     2    12 1   
     7     2    15 2   
     8     3     4 ar  
     9     3     6 ar  
    10     3    16 1   
    11     4     5 ar  
    12     5     8 ar  
    13     5    17 1   
    14     6     7 ar  
    15     6    18 1   
    16     7     8 ar  
    17     8    19 1   
    18    12    13 1   
    19    12    20 1   
    20    13    14 2   
    21    14    15 1   
@<TRIPOS>SUBSTRUCTURE
     1 QBP         1 TEMP              0 ****  ****    0 ROOT
