@<TRIPOS>MOLECULE
QBR
   67    70     1     0     0
SMALL
No Charge or Current Charge


@<TRIPOS>ATOM
      1 N1         -20.1400     7.4260    28.7590 ns         1 QBR      -0.498900
      2 C4         -23.3730     4.0980    29.4720 ca         1 QBR      -0.059300
      3 C5         -23.9110     5.1900    28.7530 ca         1 QBR      -0.105500
      4 C6         -23.1830     5.8180    27.7290 ca         1 QBR      -0.102000
      5 C7         -21.8730     5.4050    27.4220 ca         1 QBR      -0.063000
      6 C8         -21.3590     4.2700    28.0780 ca         1 QBR      -0.102000
      7 C10        -19.7330     6.4130    26.5260 c3         1 QBR       0.094000
      8 C13        -20.7760     6.4340    30.9450 c3         1 QBR      -0.065100
      9 C15        -21.8730     7.2470    33.0880 ca         1 QBR      -0.128000
     10 C17        -20.7970     6.9650    35.2530 ca         1 QBR      -0.147000
     11 C20        -18.7210     5.5750    25.7310 ca         1 QBR      -0.133300
     12 C21        -17.4810     6.1340    25.3660 ca         1 QBR      -0.051000
     13 C22        -16.5770     5.3450    24.6370 ca         1 QBR      -0.165000
     14 C24        -18.9940     4.2460    25.3360 ca         1 QBR       0.373900
     15 C26        -22.9170     5.4330    24.6110 cc         1 QBR       0.060500
     16 C28        -24.6030     4.5990    23.4000 cd         1 QBR      -0.202000
     17 O1         -21.2290     7.0750    24.2670 o          1 QBR      -0.577100
     18 O2         -23.4200     4.3340    25.2830 os         1 QBR      -0.225000
     19 C29        -24.4650     3.8440    24.5320 cc         1 QBR       0.153900
     20 C27        -23.6140     5.6020    23.4420 cd         1 QBR      -0.104000
     21 N          -21.1640     6.0060    26.3150 n          1 QBR      -0.232400
     22 C9         -22.0870     3.6380    29.1000 ca         1 QBR      -0.105500
     23 C3         -25.5450     2.9300    30.0540 c3         1 QBR      -0.084100
     24 C2         -24.4730     4.5250    31.7080 c3         1 QBR      -0.084100
     25 C          -23.4660     2.2610    31.2980 c3         1 QBR      -0.084100
     26 N2         -18.1240     3.4840    24.6320 nb         1 QBR      -0.667000
     27 C23        -16.9350     4.0320    24.2930 ca         1 QBR       0.341900
     28 C11        -19.3180     6.5970    28.0170 c          1 QBR       0.589100
     29 O          -18.3560     6.0310    28.5240 o          1 QBR      -0.577100
     30 C12        -20.0690     7.5900    30.2120 c3         1 QBR       0.103000
     31 C14        -20.7820     6.6210    32.4540 ca         1 QBR      -0.053300
     32 C19        -19.6960     6.1710    33.2300 ca         1 QBR      -0.141000
     33 C18        -19.7080     6.3440    34.6230 ca         1 QBR       0.166000
     34 F          -18.6640     5.9080    35.3620 f          1 QBR      -0.184000
     35 C16        -21.8820     7.4190    34.4840 ca         1 QBR      -0.085000
     36 H1         -20.9290     7.8320    28.2700 hn         1 QBR       0.313500
     37 H2         -24.9040     5.5650    28.9850 ha         1 QBR       0.119000
     38 H3         -23.6320     6.6520    27.1960 ha         1 QBR       0.127000
     39 H4         -20.3780     3.8810    27.8210 ha         1 QBR       0.127000
     40 H5         -19.6540     7.4350    26.1330 h1         1 QBR       0.071700
     41 H6         -21.8050     6.3560    30.5750 hc         1 QBR       0.060200
     42 H7         -20.2850     5.4880    30.6860 hc         1 QBR       0.060200
     43 H8         -22.7170     7.6000    32.5000 ha         1 QBR       0.114000
     44 H9         -20.7970     7.0950    36.3330 ha         1 QBR       0.133000
     45 H10        -17.2220     7.1540    25.6420 ha         1 QBR       0.116000
     46 H11        -15.6100     5.7400    24.3390 ha         1 QBR       0.123000
     47 H12        -19.9420     3.7700    25.5780 h4         1 QBR       0.025100
     48 H13        -25.3370     4.4420    22.6150 ha         1 QBR       0.147000
     49 H14        -25.0000     2.9810    24.9050 h4         1 QBR       0.056100
     50 H15        -23.4310     6.3670    22.6920 ha         1 QBR       0.155000
     51 H16        -21.6230     2.7880    29.5920 ha         1 QBR       0.119000
     52 H17        -26.1320     2.4350    30.8360 hc         1 QBR       0.037589
     53 H18        -26.1580     3.7420    29.6470 hc         1 QBR       0.037589
     54 H19        -25.3710     2.2040    29.2500 hc         1 QBR       0.037589
     55 H20        -25.0390     4.0970    32.5450 hc         1 QBR       0.037589
     56 H21        -23.5310     4.9220    32.1060 hc         1 QBR       0.037589
     57 H22        -25.0530     5.3660    31.3120 hc         1 QBR       0.037589
     58 H23        -24.0770     1.8370    32.1050 hc         1 QBR       0.037589
     59 H24        -23.2660     1.4580    30.5790 hc         1 QBR       0.037589
     60 H25        -22.5150     2.5810    31.7410 hc         1 QBR       0.037589
     61 H26        -16.2520     3.4000    23.7270 h4         1 QBR       0.018100
     62 H27        -19.0170     7.6420    30.5260 h1         1 QBR       0.064700
     63 H28        -20.5490     8.5400    30.4820 h1         1 QBR       0.064700
     64 H29        -18.8460     5.6870    32.7570 ha         1 QBR       0.138000
     65 H30        -22.7290     7.9020    34.9680 ha         1 QBR       0.118000
     66 C25        -21.7290     6.2490    25.0260 c          1 QBR       0.538600
     67 C1         -24.1970     3.4540    30.6190 c3         1 QBR      -0.005700
@<TRIPOS>BOND
     1     1    28 1   
     2     1    30 1   
     3     1    36 1   
     4     2     3 ar  
     5     2    22 ar  
     6     2    67 1   
     7     3     4 ar  
     8     3    37 1   
     9     4     5 ar  
    10     4    38 1   
    11     5     6 ar  
    12     5    21 1   
    13     6    22 ar  
    14     6    39 1   
    15     7    11 1   
    16     7    21 1   
    17     7    28 1   
    18     7    40 1   
    19     8    30 1   
    20     8    31 1   
    21     8    41 1   
    22     8    42 1   
    23     9    31 ar  
    24     9    35 ar  
    25     9    43 1   
    26    10    33 ar  
    27    10    35 ar  
    28    10    44 1   
    29    11    12 ar  
    30    11    14 ar  
    31    12    13 ar  
    32    12    45 1   
    33    13    27 ar  
    34    13    46 1   
    35    14    26 ar  
    36    14    47 1   
    37    15    18 1   
    38    15    20 2   
    39    15    66 1   
    40    16    19 2   
    41    16    20 1   
    42    16    48 1   
    43    17    66 2   
    44    18    19 1   
    45    19    49 1   
    46    20    50 1   
    47    21    66 1   
    48    22    51 1   
    49    23    52 1   
    50    23    53 1   
    51    23    54 1   
    52    23    67 1   
    53    24    55 1   
    54    24    56 1   
    55    24    57 1   
    56    24    67 1   
    57    25    58 1   
    58    25    59 1   
    59    25    60 1   
    60    25    67 1   
    61    26    27 ar  
    62    27    61 1   
    63    28    29 2   
    64    30    62 1   
    65    30    63 1   
    66    31    32 ar  
    67    32    33 ar  
    68    32    64 1   
    69    33    34 1   
    70    35    65 1   
@<TRIPOS>SUBSTRUCTURE
     1 QBR         1 TEMP              0 ****  ****    0 ROOT
