@<TRIPOS>MOLECULE
QBR
   67    70     1     0     0
SMALL
abcg2


@<TRIPOS>ATOM
      1 N1         -20.0170     7.3480    28.6980 ns         1 QBR      -0.498900
      2 C4         -23.3810     4.1310    29.5230 ca         1 QBR      -0.059300
      3 C5         -23.7690     5.2690    28.8070 ca         1 QBR      -0.105500
      4 C6         -23.0150     5.7530    27.7510 ca         1 QBR      -0.102000
      5 C7         -21.8540     5.0910    27.3600 ca         1 QBR      -0.063000
      6 C8         -21.4580     3.9520    28.0430 ca         1 QBR      -0.102000
      7 C10        -19.8160     6.3350    26.5040 c3         1 QBR       0.094000
      8 C13        -21.0860     6.6370    30.8110 c3         1 QBR      -0.065100
      9 C15        -21.5500     7.6770    33.0630 ca         1 QBR      -0.128000
     10 C17        -20.7790     6.6620    35.1160 ca         1 QBR      -0.147000
     11 C20        -18.6690     5.7800    25.6960 ca         1 QBR      -0.133300
     12 C21        -17.6810     6.6310    25.2150 ca         1 QBR      -0.051000
     13 C22        -16.6100     6.0970    24.5120 ca         1 QBR      -0.165000
     14 C24        -18.5350     4.4190    25.4380 ca         1 QBR       0.373900
     15 C26        -22.8180     5.0210    24.6310 cc         1 QBR       0.060500
     16 C28        -24.6530     4.1930    23.6550 cd         1 QBR      -0.202000
     17 O1         -21.1550     6.6030    24.2200 o          1 QBR      -0.577100
     18 O2         -23.1060     3.8180    25.2190 os         1 QBR      -0.225000
     19 C29        -24.2190     3.3320    24.6140 cc         1 QBR       0.153900
     20 C27        -23.7380     5.2850    23.6590 cd         1 QBR      -0.104000
     21 N          -21.0840     5.6050    26.2630 n          1 QBR      -0.232400
     22 C9         -22.2120     3.4850    29.1150 ca         1 QBR      -0.105500
     23 C3         -25.6300     3.2730    30.1990 c3         1 QBR      -0.084100
     24 C2         -24.3450     4.7800    31.7460 c3         1 QBR      -0.084100
     25 C          -23.6120     2.4280    31.3980 c3         1 QBR      -0.084100
     26 N2         -17.5110     3.8910    24.7620 nb         1 QBR      -0.667000
     27 C23        -16.5670     4.7230    24.3120 ca         1 QBR       0.341900
     28 C11        -19.4680     6.3370    28.0070 c          1 QBR       0.589100
     29 O          -18.7310     5.4910    28.5030 o          1 QBR      -0.577100
     30 C12        -19.9520     7.4330    30.1480 c3         1 QBR       0.103000
     31 C14        -20.9890     6.6440    32.3110 ca         1 QBR      -0.053300
     32 C19        -20.3150     5.6160    32.9730 ca         1 QBR      -0.141000
     33 C18        -20.2280     5.6500    34.3520 ca         1 QBR       0.166000
     34 F          -19.5750     4.6380    34.9860 f          1 QBR      -0.184000
     35 C16        -21.4470     7.6860    34.4500 ca         1 QBR      -0.085000
     36 H1         -20.6570     7.9630    28.2190 hn         1 QBR       0.313500
     37 H2         -24.6650     5.8060    29.0890 ha         1 QBR       0.119000
     38 H3         -23.3200     6.6500    27.2280 ha         1 QBR       0.127000
     39 H4         -20.5600     3.4280    27.7470 ha         1 QBR       0.127000
     40 H5         -19.9720     7.3700    26.1970 h1         1 QBR       0.071700
     41 H6         -22.0410     7.0610    30.4970 hc         1 QBR       0.060200
     42 H7         -21.0490     5.6130    30.4420 hc         1 QBR       0.060200
     43 H8         -22.0810     8.4740    32.5570 ha         1 QBR       0.114000
     44 H9         -20.6900     6.6430    36.1940 ha         1 QBR       0.133000
     45 H10        -17.7520     7.6980    25.3860 ha         1 QBR       0.116000
     46 H11        -15.8260     6.7310    24.1200 ha         1 QBR       0.123000
     47 H12        -19.2930     3.7260    25.7820 h4         1 QBR       0.025100
     48 H13        -25.5150     4.0640    23.0220 ha         1 QBR       0.147000
     49 H14        -24.5670     2.3760    24.9660 h4         1 QBR       0.056100
     50 H15        -23.7580     6.1590    23.0300 ha         1 QBR       0.155000
     51 H16        -21.8700     2.6010    29.6320 ha         1 QBR       0.119000
     52 H17        -26.2470     2.9250    31.0300 hc         1 QBR       0.037589
     53 H18        -26.1310     4.1270    29.7400 hc         1 QBR       0.037589
     54 H19        -25.5720     2.4740    29.4570 hc         1 QBR       0.037589
     55 H20        -24.9570     4.4440    32.5860 hc         1 QBR       0.037589
     56 H21        -23.3630     5.0590    32.1300 hc         1 QBR       0.037589
     57 H22        -24.8110     5.6700    31.3230 hc         1 QBR       0.037589
     58 H23        -24.2440     2.1330    32.2370 hc         1 QBR       0.037589
     59 H24        -23.5350     1.5740    30.7220 hc         1 QBR       0.037589
     60 H25        -22.6170     2.6470    31.7890 hc         1 QBR       0.037589
     61 H26        -15.7450     4.2720    23.7670 h4         1 QBR       0.018100
     62 H27        -18.9850     7.0450    30.4670 h1         1 QBR       0.064700
     63 H28        -20.0070     8.4840    30.4300 h1         1 QBR       0.064700
     64 H29        -19.8730     4.7950    32.4230 ha         1 QBR       0.138000
     65 H30        -21.8920     8.4900    35.0210 ha         1 QBR       0.118000
     66 C25        -21.6370     5.8050    25.0240 c          1 QBR       0.538600
     67 C1         -24.2250     3.6500    30.7050 c3         1 QBR      -0.005700
@<TRIPOS>BOND
     1     1    28 1   
     2     1    30 1   
     3     1    36 1   
     4     2     3 ar  
     5     2    22 ar  
     6     2    67 1   
     7     3     4 ar  
     8     3    37 1   
     9     4     5 ar  
    10     4    38 1   
    11     5     6 ar  
    12     5    21 1   
    13     6    22 ar  
    14     6    39 1   
    15     7    11 1   
    16     7    21 1   
    17     7    28 1   
    18     7    40 1   
    19     8    30 1   
    20     8    31 1   
    21     8    41 1   
    22     8    42 1   
    23     9    31 ar  
    24     9    35 ar  
    25     9    43 1   
    26    10    33 ar  
    27    10    35 ar  
    28    10    44 1   
    29    11    12 ar  
    30    11    14 ar  
    31    12    13 ar  
    32    12    45 1   
    33    13    27 ar  
    34    13    46 1   
    35    14    26 ar  
    36    14    47 1   
    37    15    18 1   
    38    15    20 2   
    39    15    66 1   
    40    16    19 2   
    41    16    20 1   
    42    16    48 1   
    43    17    66 2   
    44    18    19 1   
    45    19    49 1   
    46    20    50 1   
    47    21    66 1   
    48    22    51 1   
    49    23    52 1   
    50    23    53 1   
    51    23    54 1   
    52    23    67 1   
    53    24    55 1   
    54    24    56 1   
    55    24    57 1   
    56    24    67 1   
    57    25    58 1   
    58    25    59 1   
    59    25    60 1   
    60    25    67 1   
    61    26    27 ar  
    62    27    61 1   
    63    28    29 2   
    64    30    62 1   
    65    30    63 1   
    66    31    32 ar  
    67    32    33 ar  
    68    32    64 1   
    69    33    34 1   
    70    35    65 1   
@<TRIPOS>SUBSTRUCTURE
     1 QBR         1 TEMP              0 ****  ****    0 ROOT
