@<TRIPOS>MOLECULE
QBS
   21    21     1     0     0
SMALL
No Charge or Current Charge


@<TRIPOS>ATOM
      1 C13         23.3050   -12.8660    11.3190 c3         1 QBS      -0.196100
      2 C11         20.5950   -14.4050     6.7490 ca         1 QBS      -0.099000
      3 C10         20.8710   -16.6230     7.7050 ca         1 QBS      -0.099000
      4 C09         20.1840   -15.7430     6.8550 ca         1 QBS       0.133000
      5 C07         21.9720   -16.1660     8.4510 ca         1 QBS      -0.079500
      6 C08         21.6950   -13.9450     7.4940 ca         1 QBS      -0.079500
      7 C05         22.3950   -14.8220     8.3510 ca         1 QBS      -0.075300
      8 C01         23.5930   -14.3040     9.1610 c3         1 QBS      -0.064300
      9 C03         24.8030   -15.0860     8.8960 c1         1 QBS       0.304900
     10 N02         25.7760   -15.6850     8.6680 n1         1 QBS      -0.444000
     11 C04         23.2860   -14.2480    10.6650 c          1 QBS       0.576100
     12 O06         23.0250   -15.2490    11.3220 o          1 QBS      -0.485100
     13 H132        23.0650   -12.9010    12.3880 hc         1 QBS       0.071033
     14 H131        24.2800   -12.3990    11.1380 hc         1 QBS       0.071033
     15 H133        22.6230   -12.2050    10.7730 hc         1 QBS       0.071033
     16 H11         20.0600   -13.7250     6.0910 ha         1 QBS       0.133500
     17 H10         20.5500   -17.6590     7.7860 ha         1 QBS       0.133500
     18 H07         22.4920   -16.8610     9.1070 ha         1 QBS       0.120000
     19 H08         22.0000   -12.9050     7.4010 ha         1 QBS       0.120000
     20 H01         23.8220   -13.2820     8.8420 hc         1 QBS       0.093700
     21 Cl12        18.8070   -16.3160     5.9230 cl         1 QBS      -0.206000
@<TRIPOS>BOND
     1     1    11 1   
     2     1    13 1   
     3     1    14 1   
     4     1    15 1   
     5     2     4 ar  
     6     2     6 ar  
     7     2    16 1   
     8     3     4 ar  
     9     3     5 ar  
    10     3    17 1   
    11     4    21 1   
    12     5     7 ar  
    13     5    18 1   
    14     6     7 ar  
    15     6    19 1   
    16     7     8 1   
    17     8     9 1   
    18     8    11 1   
    19     8    20 1   
    20     9    10 3   
    21    11    12 2   
@<TRIPOS>SUBSTRUCTURE
     1 QBS         1 TEMP              0 ****  ****    0 ROOT
