@<TRIPOS>MOLECULE
QBS
   21    21     1     0     0
SMALL
abcg2


@<TRIPOS>ATOM
      1 C13         23.8830   -13.2100    11.4880 c3         1 QBS      -0.196100
      2 C11         20.3750   -14.6610     6.7210 ca         1 QBS      -0.099000
      3 C10         21.1280   -16.7670     7.6470 ca         1 QBS      -0.099000
      4 C09         20.2680   -16.0390     6.8350 ca         1 QBS       0.133000
      5 C07         22.1110   -16.0940     8.3590 ca         1 QBS      -0.079500
      6 C08         21.3670   -14.0020     7.4380 ca         1 QBS      -0.079500
      7 C05         22.2370   -14.7100     8.2600 ca         1 QBS      -0.075300
      8 C01         23.2700   -13.9620     9.0730 c3         1 QBS      -0.064300
      9 C03         24.5880   -14.5830     8.9980 c1         1 QBS       0.304900
     10 N02         25.6220   -15.0850     8.9430 n1         1 QBS      -0.444000
     11 C04         22.8300   -13.7200    10.5530 c          1 QBS       0.576100
     12 O06         21.6820   -13.9050    10.8680 o          1 QBS      -0.485100
     13 H132        23.4220   -12.8370    12.3990 hc         1 QBS       0.071033
     14 H131        24.5650   -14.0290    11.7360 hc         1 QBS       0.071033
     15 H133        24.4770   -12.4290    11.0080 hc         1 QBS       0.071033
     16 H11         19.7000   -14.1100     6.0820 ha         1 QBS       0.133500
     17 H10         21.0310   -17.8410     7.7230 ha         1 QBS       0.133500
     18 H07         22.7820   -16.6580     8.9950 ha         1 QBS       0.120000
     19 H08         21.4570   -12.9260     7.3540 ha         1 QBS       0.120000
     20 H01         23.3840   -12.9490     8.6670 hc         1 QBS       0.093700
     21 CL12        19.0220   -16.8790     5.9380 cl         1 QBS      -0.206000
@<TRIPOS>BOND
     1     1    11 1   
     2     1    13 1   
     3     1    14 1   
     4     1    15 1   
     5     2     4 ar  
     6     2     6 ar  
     7     2    16 1   
     8     3     4 ar  
     9     3     5 ar  
    10     3    17 1   
    11     4    21 1   
    12     5     7 ar  
    13     5    18 1   
    14     6     7 ar  
    15     6    19 1   
    16     7     8 1   
    17     8     9 1   
    18     8    11 1   
    19     8    20 1   
    20     9    10 3   
    21    11    12 2   
@<TRIPOS>SUBSTRUCTURE
     1 QBS         1 TEMP              0 ****  ****    0 ROOT
