@<TRIPOS>MOLECULE
QBU
   57    60     1     0     0
SMALL
No Charge or Current Charge


@<TRIPOS>ATOM
      1 C18        -32.4310     0.6770     3.5580 ca         1 QBU      -0.112000
      2 C17        -31.4310     1.6640     3.5640 ca         1 QBU      -0.109500
      3 C16        -30.4510     1.6670     4.5720 ca         1 QBU      -0.107500
      4 C15        -30.4650     0.6820     5.5790 ca         1 QBU      -0.078300
      5 C14        -29.4060     0.6890     6.6740 c3         1 QBU      -0.031100
      6 C13        -29.8380     1.5300     7.8940 c3         1 QBU      -0.072400
      7 C12        -28.7820     1.5530     9.0210 c3         1 QBU      -0.071400
      8 C11        -29.2190     2.3950    10.2400 c3         1 QBU      -0.101400
      9 C10        -28.1640     2.4120    11.3680 c3         1 QBU       0.233800
     10 C9         -29.6950     2.9740    13.3570 ca         1 QBU       0.444900
     11 N2         -31.8060     2.7090    15.1170 nb         1 QBU      -0.214000
     12 C8         -31.1990     3.8810    14.8310 ca         1 QBU       0.181900
     13 C7         -31.3210     1.6220    14.4870 ca         1 QBU       0.148500
     14 N1         -29.9220     0.4420    13.1080 nc         1 QBU      -0.554100
     15 C1         -34.1690     0.4240    15.3580 c5         1 QBU       0.136300
     16 C5         -30.8060    -0.3650    13.7180 cd         1 QBU       0.407700
     17 C6         -30.2660     1.6960    13.6070 ca         1 QBU      -0.092600
     18 C4         -32.7610    -0.2950    15.3830 c5         1 QBU       0.315300
     19 O3         -33.0010    -1.6550    14.9400 os         1 QBU      -0.456000
     20 C2         -34.2580    -1.6910    14.2240 c5         1 QBU       0.130300
     21 N          -31.7050     0.3060    14.5640 na         1 QBU      -0.296300
     22 C          -35.1600    -0.7500    15.0800 c5         1 QBU       0.110300
     23 O          -35.5860    -1.3560    16.3220 oh         1 QBU      -0.694000
     24 C19        -32.4510    -0.3070     4.5610 ca         1 QBU      -0.109500
     25 C20        -31.4710    -0.3040     5.5690 ca         1 QBU      -0.107500
     26 N3         -30.1640     4.0680    13.9820 nb         1 QBU      -0.305000
     27 N4         -28.6210     3.2300    12.5040 nu         1 QBU      -0.914100
     28 O1         -34.5360     1.0410    16.5970 oh         1 QBU      -0.674000
     29 H1         -33.1890     0.6750     2.7780 ha         1 QBU       0.112000
     30 H2         -31.4160     2.4270     2.7890 ha         1 QBU       0.111000
     31 H3         -29.6820     2.4370     4.5720 ha         1 QBU       0.109500
     32 H4         -29.1970    -0.3380     7.0010 hc         1 QBU       0.045700
     33 H5         -28.4610     1.0830     6.2810 hc         1 QBU       0.045700
     34 H6         -30.0400     2.5580     7.5660 hc         1 QBU       0.043700
     35 H7         -30.7800     1.1300     8.2890 hc         1 QBU       0.043700
     36 H8         -28.5820     0.5250     9.3480 hc         1 QBU       0.039200
     37 H9         -27.8400     1.9540     8.6250 hc         1 QBU       0.039200
     38 H10        -29.4150     3.4250     9.9160 hc         1 QBU       0.050700
     39 H11        -30.1630     1.9960    10.6290 hc         1 QBU       0.050700
     40 H12        -27.9440     1.3860    11.6900 h1         1 QBU       0.061200
     41 H13        -27.2300     2.8300    10.9660 h1         1 QBU       0.061200
     42 H14        -31.5830     4.7660    15.3370 h5         1 QBU       0.048100
     43 H15        -34.2080     1.1580    14.5420 h1         1 QBU       0.041700
     44 H16        -30.8540    -1.4410    13.5910 h5         1 QBU       0.061800
     45 H17        -32.3680    -0.3130    16.4080 h2         1 QBU       0.130700
     46 H20        -34.6350    -2.7230    14.2230 h1         1 QBU       0.089700
     47 H21        -35.1120    -1.1070    11.0760 ho         1 QBU       0.513000
     48 H22        -36.0320    -0.4040    14.5060 h1         1 QBU       0.066700
     49 H23        -36.1480    -2.1350    16.0950 ho         1 QBU       0.509000
     50 H24        -33.2250    -1.0710     4.5580 ha         1 QBU       0.111000
     51 H25        -31.4940    -1.0670     6.3440 ha         1 QBU       0.109500
     52 H26        -28.3290     4.2080    12.5050 hn         1 QBU       0.502000
     53 H27        -35.0770     0.3290    17.0290 ho         1 QBU       0.511000
     54 C3         -34.0630    -1.2540    12.7380 c3         1 QBU       0.144600
     55 O2         -35.3050    -1.3340    12.0180 oh         1 QBU      -0.730000
     56 H18        -33.6680    -0.2310    12.6950 h1         1 QBU       0.036200
     57 H19        -33.3170    -1.9170    12.2790 h1         1 QBU       0.036200
@<TRIPOS>BOND
     1     1     2 ar  
     2     1    24 ar  
     3     1    29 1   
     4     2     3 ar  
     5     2    30 1   
     6     3     4 ar  
     7     3    31 1   
     8     4     5 1   
     9     4    25 ar  
    10     5     6 1   
    11     5    32 1   
    12     5    33 1   
    13     6     7 1   
    14     6    34 1   
    15     6    35 1   
    16     7     8 1   
    17     7    36 1   
    18     7    37 1   
    19     8     9 1   
    20     8    38 1   
    21     8    39 1   
    22     9    27 1   
    23     9    40 1   
    24     9    41 1   
    25    10    17 ar  
    26    10    26 ar  
    27    10    27 1   
    28    11    12 ar  
    29    11    13 ar  
    30    12    26 ar  
    31    12    42 1   
    32    13    17 ar  
    33    13    21 1   
    34    14    16 2   
    35    14    17 1   
    36    15    18 1   
    37    15    22 1   
    38    15    28 1   
    39    15    43 1   
    40    16    21 1   
    41    16    44 1   
    42    18    19 1   
    43    18    21 1   
    44    18    45 1   
    45    19    20 1   
    46    20    22 1   
    47    20    46 1   
    48    20    54 1   
    49    22    23 1   
    50    22    48 1   
    51    23    49 1   
    52    24    25 ar  
    53    24    50 1   
    54    25    51 1   
    55    27    52 1   
    56    28    53 1   
    57    47    55 1   
    58    54    55 1   
    59    54    56 1   
    60    54    57 1   
@<TRIPOS>SUBSTRUCTURE
     1 QBU         1 TEMP              0 ****  ****    0 ROOT
