@<TRIPOS>MOLECULE
QBU
   57    60     1     0     0
SMALL
abcg2


@<TRIPOS>ATOM
      1 C18        -32.2160     1.5770     3.2090 ca         1 QBU      -0.112000
      2 C17        -31.0520     2.3360     3.2910 ca         1 QBU      -0.109500
      3 C16        -30.1520     2.1250     4.3310 ca         1 QBU      -0.107500
      4 C15        -30.3950     1.1550     5.3060 ca         1 QBU      -0.078300
      5 C14        -29.4440     0.9580     6.4560 c3         1 QBU      -0.031100
      6 C13        -29.7890     1.8390     7.6650 c3         1 QBU      -0.072400
      7 C12        -28.8540     1.6080     8.8480 c3         1 QBU      -0.071400
      8 C11        -29.1690     2.4980    10.0470 c3         1 QBU      -0.101400
      9 C10        -28.2440     2.2050    11.2270 c3         1 QBU       0.233800
     10 C9         -29.4740     2.8380    13.3090 ca         1 QBU       0.444900
     11 N2         -31.4000     2.6500    15.3740 nb         1 QBU      -0.214000
     12 C8         -30.5220     3.6410    15.2210 ca         1 QBU       0.181900
     13 C7         -31.2750     1.7270    14.4160 ca         1 QBU       0.148500
     14 N1         -30.5400     0.6060    12.5690 nc         1 QBU      -0.554100
     15 C1         -34.4720     0.1240    14.4330 c5         1 QBU       0.136300
     16 C5         -31.5300    -0.0420    13.1250 cd         1 QBU       0.407700
     17 C6         -30.3550     1.7330    13.3610 ca         1 QBU      -0.092600
     18 C4         -33.0980     0.1360    15.1040 c5         1 QBU       0.315300
     19 O3         -32.8560    -1.2010    15.5040 os         1 QBU      -0.456000
     20 C2         -34.0890    -1.9600    15.4890 c5         1 QBU       0.130300
     21 N          -32.0200     0.5830    14.2500 na         1 QBU      -0.296300
     22 C          -35.2090    -0.9430    15.2490 c5         1 QBU       0.110300
     23 O          -35.6590    -0.3490    16.4600 oh         1 QBU      -0.694000
     24 C19        -32.4700     0.6060     4.1740 ca         1 QBU      -0.109500
     25 C20        -31.5660     0.3990     5.2110 ca         1 QBU      -0.107500
     26 N3         -29.6000     3.7840    14.2700 nb         1 QBU      -0.305000
     27 N4         -28.5090     3.0290    12.3970 nu         1 QBU      -0.914100
     28 O1         -35.0120     1.4240    14.4450 oh         1 QBU      -0.674000
     29 H1         -32.9160     1.7370     2.3980 ha         1 QBU       0.112000
     30 H2         -30.8430     3.0910     2.5430 ha         1 QBU       0.111000
     31 H3         -29.2460     2.7170     4.3870 ha         1 QBU       0.109500
     32 H4         -29.4580    -0.0900     6.7670 hc         1 QBU       0.045700
     33 H5         -28.4240     1.1840     6.1330 hc         1 QBU       0.045700
     34 H6         -29.7520     2.8910     7.3630 hc         1 QBU       0.043700
     35 H7         -30.8210     1.6390     7.9700 hc         1 QBU       0.043700
     36 H8         -28.9150     0.5570     9.1530 hc         1 QBU       0.039200
     37 H9         -27.8190     1.7780     8.5310 hc         1 QBU       0.039200
     38 H10        -29.0730     3.5510     9.7670 hc         1 QBU       0.050700
     39 H11        -30.2050     2.3410    10.3610 hc         1 QBU       0.050700
     40 H12        -28.3280     1.1570    11.5110 h1         1 QBU       0.061200
     41 H13        -27.2070     2.3870    10.9410 h1         1 QBU       0.061200
     42 H14        -30.5610     4.4340    15.9600 h5         1 QBU       0.048100
     43 H15        -34.3650    -0.2430    13.4080 h1         1 QBU       0.041700
     44 H16        -31.9420    -0.9760    12.7770 h5         1 QBU       0.061800
     45 H17        -33.1090     0.8120    15.9610 h2         1 QBU       0.130700
     46 H20        -34.2100    -2.4280    16.4680 h1         1 QBU       0.089700
     47 H21        -35.1000    -4.5680    13.8980 ho         1 QBU       0.513000
     48 H22        -36.0400    -1.3850    14.6960 h1         1 QBU       0.066700
     49 H23        -36.0850    -1.0340    16.9900 ho         1 QBU       0.509000
     50 H24        -33.3700     0.0060     4.1170 ha         1 QBU       0.111000
     51 H25        -31.7680    -0.3620     5.9570 ha         1 QBU       0.109500
     52 H26        -28.0210     3.9100    12.4750 hn         1 QBU       0.502000
     53 H27        -35.7800     1.4490    13.8610 ho         1 QBU       0.511000
     54 C3         -33.9860    -3.0470    14.4310 c3         1 QBU       0.144600
     55 O2         -35.1070    -3.9110    14.6040 oh         1 QBU      -0.730000
     56 H18        -33.9800    -2.6060    13.4280 h1         1 QBU       0.036200
     57 H19        -33.0440    -3.5850    14.5740 h1         1 QBU       0.036200
@<TRIPOS>BOND
     1     1     2 ar  
     2     1    24 ar  
     3     1    29 1   
     4     2     3 ar  
     5     2    30 1   
     6     3     4 ar  
     7     3    31 1   
     8     4     5 1   
     9     4    25 ar  
    10     5     6 1   
    11     5    32 1   
    12     5    33 1   
    13     6     7 1   
    14     6    34 1   
    15     6    35 1   
    16     7     8 1   
    17     7    36 1   
    18     7    37 1   
    19     8     9 1   
    20     8    38 1   
    21     8    39 1   
    22     9    27 1   
    23     9    40 1   
    24     9    41 1   
    25    10    17 ar  
    26    10    26 ar  
    27    10    27 1   
    28    11    12 ar  
    29    11    13 ar  
    30    12    26 ar  
    31    12    42 1   
    32    13    17 ar  
    33    13    21 1   
    34    14    16 2   
    35    14    17 1   
    36    15    18 1   
    37    15    22 1   
    38    15    28 1   
    39    15    43 1   
    40    16    21 1   
    41    16    44 1   
    42    18    19 1   
    43    18    21 1   
    44    18    45 1   
    45    19    20 1   
    46    20    22 1   
    47    20    46 1   
    48    20    54 1   
    49    22    23 1   
    50    22    48 1   
    51    23    49 1   
    52    24    25 ar  
    53    24    50 1   
    54    25    51 1   
    55    27    52 1   
    56    28    53 1   
    57    47    55 1   
    58    54    55 1   
    59    54    56 1   
    60    54    57 1   
@<TRIPOS>SUBSTRUCTURE
     1 QBU         1 TEMP              0 ****  ****    0 ROOT
