@<TRIPOS>MOLECULE
QBV
   19    19     1     0     0
SMALL
bcc


@<TRIPOS>ATOM
      1 H1          11.7550     2.6910   -13.5940 c          1 QBV       0.358000
      2 H1          11.9090     2.8180   -14.8250 o          1 QBV      -0.561000
      3 H2          12.7710     1.8600   -12.8380 c2         1 QBV      -0.144000
      4 H3          13.7910     1.2350   -13.4310 c2         1 QBV      -0.202000
      5 H7          14.8210     0.4130   -12.7950 ca         1 QBV      -0.016000
      6 H8          15.7840    -0.1990   -13.5980 ca         1 QBV      -0.084000
      7 H9          16.7810    -0.9870   -13.0480 ca         1 QBV      -0.191000
      8 H4          16.8590    -1.1920   -11.6720 ca         1 QBV       0.077000
      9 H5          15.8990    -0.5780   -10.8650 ca         1 QBV      -0.223000
     10 H6          14.9040     0.2040   -11.4150 ca         1 QBV      -0.088000
     11 H4          17.8400    -1.9610   -11.1850 oh         1 QBV      -0.243000
     12 HR          18.0620    -1.8000   -14.1670 br         1 QBV       0.021000
     13 H2          10.8410     3.1780   -12.8970 o          1 QBV      -0.561000
     14 H2          12.6280     1.7870   -11.7630 ha         1 QBV       0.091000
     15 H3          13.8830     1.3340   -14.5090 ha         1 QBV       0.142000
     16 H5          15.7480    -0.0540   -14.6710 ha         1 QBV       0.149000
     17 H1          15.9390    -0.7210    -9.7910 ha         1 QBV       0.118000
     18 H6          14.1820     0.6590   -10.7490 ha         1 QBV       0.139000
     19 H4          17.7780    -2.0230   -10.2240 ha         1 QBV       0.217000
@<TRIPOS>BOND
     1     1     2 1   
     2     1     3 1   
     3     1    13 1   
     4     3     4 2   
     5     3    14 1   
     6     4     5 1   
     7     4    15 1   
     8     5     6 ar  
     9     5    10 ar  
    10     6     7 ar  
    11     6    16 1   
    12     7     8 ar  
    13     7    12 1   
    14     8     9 ar  
    15     8    11 1   
    16     9    10 ar  
    17     9    17 1   
    18    10    18 1   
    19    11    19 1   
@<TRIPOS>SUBSTRUCTURE
     1 QBV         1 TEMP              0 ****  ****    0 ROOT
