@<TRIPOS>MOLECULE
QBV
   19    19     1     0     0
SMALL
No Charge or Current Charge


@<TRIPOS>ATOM
      1 C1          11.7190     2.7180   -13.5650 c          1 QBV       0.697200
      2 O1          11.7800     2.8190   -14.7810 o          1 QBV      -0.721000
      3 C2          12.7480     1.8960   -12.8520 ce         1 QBV      -0.213200
      4 C3          13.7870     1.2210   -13.4370 cf         1 QBV      -0.240200
      5 C7          14.8410     0.3920   -12.8150 ca         1 QBV      -0.027800
      6 C8          15.8180    -0.2110   -13.6340 ca         1 QBV      -0.066000
      7 C9          16.8330    -1.0050   -13.0710 ca         1 QBV      -0.050900
      8 C4          16.8810    -1.2050   -11.6780 ca         1 QBV       0.122100
      9 C5          15.9130    -0.6080   -10.8560 ca         1 QBV      -0.205000
     10 C6          14.8980     0.1860   -11.4200 ca         1 QBV      -0.070000
     11 O4          17.8600    -1.9720   -11.1150 oh         1 QBV      -0.528100
     12 Br          18.1390    -1.8040   -14.2300 br         1 QBV      -0.119100
     13 O2          10.8570     3.2560   -12.8870 o          1 QBV      -0.721000
     14 H2          12.6220     1.8590   -11.7740 ha         1 QBV       0.141000
     15 H3          13.8670     1.2930   -14.5240 ha         1 QBV       0.192000
     16 H5          15.7920    -0.0650   -14.7110 ha         1 QBV       0.131000
     17 H1          15.9390    -0.7550    -9.7790 ha         1 QBV       0.100000
     18 H6          14.1600     0.6370   -10.7630 ha         1 QBV       0.121000
     19 H4          17.7200    -1.9870   -10.1440 ho         1 QBV       0.457000
@<TRIPOS>BOND
     1     1     2 1   
     2     1     3 1   
     3     1    13 1   
     4     3     4 2   
     5     3    14 1   
     6     4     5 1   
     7     4    15 1   
     8     5     6 ar  
     9     5    10 ar  
    10     6     7 ar  
    11     6    16 1   
    12     7     8 ar  
    13     7    12 1   
    14     8     9 ar  
    15     8    11 1   
    16     9    10 ar  
    17     9    17 1   
    18    10    18 1   
    19    11    19 1   
@<TRIPOS>SUBSTRUCTURE
     1 QBV         1 TEMP              0 ****  ****    0 ROOT
