@<TRIPOS>MOLECULE
QBW
   35    36     1     0     0
SMALL
abcg2


@<TRIPOS>ATOM
      1 N1          -4.8120    17.1260     6.8820 n7         1 QBW      -0.867400
      2 C4          -1.3830    18.7240     9.4330 ca         1 QBW      -0.123000
      3 C5          -1.9170    17.5970     8.8160 ca         1 QBW      -0.093000
      4 C6          -3.0270    16.9540     9.3450 ca         1 QBW      -0.069300
      5 C7          -3.6670    15.7890     8.6450 c3         1 QBW      -0.025100
      6 C8          -4.9790    16.1410     7.9400 c3         1 QBW       0.170800
      7 C10         -6.4080    18.8390     7.7810 ca         1 QBW      -0.121300
      8 C13         -8.9820    19.3720     8.7470 ca         1 QBW      -0.109000
      9 C15         -6.6110    19.1880     9.1130 ca         1 QBW      -0.104500
     10 C1          -3.5850    17.4580    10.5210 ca         1 QBW      -0.165000
     11 C2          -3.0630    18.5810    11.1400 ca         1 QBW       0.039100
     12 C3          -1.9480    19.2290    10.5910 ca         1 QBW       0.117100
     13 O1          -3.5730    19.1250    12.2720 oh         1 QBW      -0.560100
     14 O2          -1.4090    20.3280    11.1680 oh         1 QBW      -0.536100
     15 C9          -5.0270    18.5170     7.2540 c3         1 QBW       0.203100
     16 C11         -7.5170    18.7620     6.9390 ca         1 QBW      -0.104500
     17 C12         -8.7930    19.0260     7.4140 ca         1 QBW      -0.111500
     18 C14         -7.8870    19.4540     9.5960 ca         1 QBW      -0.111500
     19 H1          -5.4260    16.8960     6.1130 hn         1 QBW       0.410000
     20 H4          -1.4640    17.2300     7.9040 ha         1 QBW       0.123000
     21 H5          -3.8760    14.9920     9.3640 hc         1 QBW       0.049700
     22 H6          -2.9740    15.3750     7.9090 hc         1 QBW       0.049700
     23 H7          -5.7240    16.4410     8.6890 h1         1 QBW       0.031700
     24 H8          -5.3640    15.2250     7.4870 h1         1 QBW       0.031700
     25 H9          -9.9770    19.5780     9.1200 ha         1 QBW       0.112000
     26 H10         -5.7600    19.2480     9.7820 ha         1 QBW       0.111000
     27 H11         -4.4520    16.9700    10.9560 ha         1 QBW       0.110000
     28 H12         -4.2930    18.5860    12.6170 ho         1 QBW       0.472000
     29 H13         -1.9030    20.5710    11.9590 ho         1 QBW       0.480000
     30 H14         -4.2830    18.8090     7.9960 h1         1 QBW       0.063200
     31 H15         -4.8290    19.1240     6.3670 h1         1 QBW       0.063200
     32 H16         -7.3820    18.5000     5.8950 ha         1 QBW       0.111000
     33 H17         -9.6410    18.9650     6.7440 ha         1 QBW       0.111500
     34 H18         -8.0260    19.7200    10.6360 ha         1 QBW       0.111500
     35 H3          -0.5180    19.2210     9.0120 ha         1 QBW       0.131000
@<TRIPOS>BOND
     1     1     6 1   
     2     1    15 1   
     3     1    19 1   
     4     2     3 ar  
     5     2    12 ar  
     6     2    35 1   
     7     3     4 ar  
     8     3    20 1   
     9     4     5 1   
    10     4    10 ar  
    11     5     6 1   
    12     5    21 1   
    13     5    22 1   
    14     6    23 1   
    15     6    24 1   
    16     7     9 ar  
    17     7    15 1   
    18     7    16 ar  
    19     8    17 ar  
    20     8    18 ar  
    21     8    25 1   
    22     9    18 ar  
    23     9    26 1   
    24    10    11 ar  
    25    10    27 1   
    26    11    12 ar  
    27    11    13 1   
    28    12    14 1   
    29    13    28 1   
    30    14    29 1   
    31    15    30 1   
    32    15    31 1   
    33    16    17 ar  
    34    16    32 1   
    35    17    33 1   
    36    18    34 1   
@<TRIPOS>SUBSTRUCTURE
     1 QBW         1 TEMP              0 ****  ****    0 ROOT
