@<TRIPOS>MOLECULE
QBW
   35    36     1     0     0
SMALL
No Charge or Current Charge


@<TRIPOS>ATOM
      1 N1          -5.1220    16.6310     6.6210 n7         1 QBW      -0.867400
      2 C4          -1.8040    19.1170     9.6570 ca         1 QBW      -0.123000
      3 C5          -2.1410    17.9990     8.8730 ca         1 QBW      -0.093000
      4 C6          -3.1620    17.1190     9.2890 ca         1 QBW      -0.069300
      5 C7          -3.5200    15.8970     8.4450 c3         1 QBW      -0.025100
      6 C8          -4.9720    15.8910     7.8980 c3         1 QBW       0.170800
      7 C10         -6.1870    18.6950     7.5230 ca         1 QBW      -0.121300
      8 C13         -8.2710    19.7820     9.0860 ca         1 QBW      -0.109000
      9 C15         -5.8950    19.4520     8.6750 ca         1 QBW      -0.104500
     10 C1          -3.8290    17.3580    10.5090 ca         1 QBW      -0.165000
     11 C2          -3.4910    18.4730    11.2940 ca         1 QBW       0.039100
     12 C3          -2.4780    19.3540    10.8640 ca         1 QBW       0.117100
     13 O1          -4.1440    18.7050    12.4750 oh         1 QBW      -0.560100
     14 O2          -2.1590    20.4340    11.6320 oh         1 QBW      -0.536100
     15 C9          -5.0560    18.1100     6.6810 c3         1 QBW       0.203100
     16 C11         -7.5330    18.4980     7.1520 ca         1 QBW      -0.104500
     17 C12         -8.5710    19.0380     7.9330 ca         1 QBW      -0.111500
     18 C14         -6.9320    19.9900     9.4560 ca         1 QBW      -0.111500
     19 H1          -6.0440    16.3950     6.2380 hn         1 QBW       0.410000
     20 H4          -1.6120    17.8200     7.9400 ha         1 QBW       0.123000
     21 H5          -3.3980    15.0040     9.0700 hc         1 QBW       0.049700
     22 H6          -2.8190    15.7690     7.6120 hc         1 QBW       0.049700
     23 H7          -5.6670    16.2640     8.6630 h1         1 QBW       0.031700
     24 H8          -5.2410    14.8410     7.7170 h1         1 QBW       0.031700
     25 H9          -9.0740    20.1990     9.6900 ha         1 QBW       0.112000
     26 H10         -4.8620    19.6240     8.9670 ha         1 QBW       0.111000
     27 H11         -4.6080    16.6740    10.8390 ha         1 QBW       0.110000
     28 H12         -4.8110    17.9960    12.6120 ho         1 QBW       0.472000
     29 H13         -2.7520    20.3870    12.4160 ho         1 QBW       0.480000
     30 H14         -4.0880    18.4450     7.0770 h1         1 QBW       0.063200
     31 H15         -5.1350    18.5280     5.6670 h1         1 QBW       0.063200
     32 H16         -7.7770    17.9270     6.2590 ha         1 QBW       0.111000
     33 H17         -9.6080    18.8800     7.6420 ha         1 QBW       0.111500
     34 H18         -6.6970    20.5690    10.3460 ha         1 QBW       0.111500
     35 H3          -1.0200    19.7960     9.3290 ha         1 QBW       0.131000
@<TRIPOS>BOND
     1     1     6 1   
     2     1    15 1   
     3     1    19 1   
     4     2     3 ar  
     5     2    12 ar  
     6     2    35 1   
     7     3     4 ar  
     8     3    20 1   
     9     4     5 1   
    10     4    10 ar  
    11     5     6 1   
    12     5    21 1   
    13     5    22 1   
    14     6    23 1   
    15     6    24 1   
    16     7     9 ar  
    17     7    15 1   
    18     7    16 ar  
    19     8    17 ar  
    20     8    18 ar  
    21     8    25 1   
    22     9    18 ar  
    23     9    26 1   
    24    10    11 ar  
    25    10    27 1   
    26    11    12 ar  
    27    11    13 1   
    28    12    14 1   
    29    13    28 1   
    30    14    29 1   
    31    15    30 1   
    32    15    31 1   
    33    16    17 ar  
    34    16    32 1   
    35    17    33 1   
    36    18    34 1   
@<TRIPOS>SUBSTRUCTURE
     1 QBW         1 TEMP              0 ****  ****    0 ROOT
