@<TRIPOS>MOLECULE
QBY
   53    56     1     0     0
SMALL
bcc


@<TRIPOS>ATOM
      1 O1           3.9910     0.3400    -2.3890 o          1 QBY      -0.579100
      2 C18          3.7700     0.5030    -1.1980 c          1 QBY       0.698700
      3 N1           4.6440     0.2100    -0.2240 n          1 QBY      -0.470800
      4 C22          4.3970     0.3570     1.2000 c6         1 QBY       0.063000
      5 C21          4.6790    -0.9560     1.9130 c6         1 QBY       0.109900
      6 O2           5.9730    -1.4330     1.6360 os         1 QBY      -0.396600
      7 C20          6.1540    -1.6350     0.2520 c6         1 QBY       0.109900
      8 C19          5.9520    -0.3480    -0.5270 c6         1 QBY       0.063000
      9 C17          2.4680     1.1280    -0.7890 ca         1 QBY      -0.210900
     10 C2           1.3190     0.3920    -0.6670 ca         1 QBY       0.074900
     11 S            1.3990    -1.3670    -0.8350 ss         1 QBY      -0.274000
     12 C1           1.0450    -1.8990     0.8800 c3         1 QBY       0.008700
     13 C            1.4170    -3.3640     1.0180 c3         1 QBY      -0.084100
     14 C16          2.4050     2.5340    -0.6380 ca         1 QBY       0.418200
     15 N            1.3090     3.1820    -0.3700 nb         1 QBY      -0.636000
     16 C15          0.1570     2.4810    -0.2590 ca         1 QBY       0.360600
     17 C3           0.0930     1.0710    -0.4160 ca         1 QBY      -0.086300
     18 C14         -1.0340     3.1850     0.0100 ca         1 QBY      -0.126300
     19 C13         -2.2350     2.5380     0.1070 ca         1 QBY      -0.194000
     20 C5          -2.2990     1.1370    -0.0730 ca         1 QBY       0.154100
     21 C4          -1.1500     0.4230    -0.3300 ca         1 QBY      -0.170000
     22 O           -3.4430     0.4340    -0.0120 os         1 QBY      -0.316900
     23 C6          -4.6670     1.1160     0.2500 c3         1 QBY       0.189700
     24 C7          -5.7530     0.0850     0.2610 ca         1 QBY      -0.100300
     25 C12         -6.0200    -0.6410     1.4180 ca         1 QBY      -0.100500
     26 C11         -7.0050    -1.6190     1.4250 ca         1 QBY      -0.132500
     27 C10         -7.7320    -1.8800     0.2700 ca         1 QBY      -0.114000
     28 C9          -7.4710    -1.1610    -0.8890 ca         1 QBY      -0.132500
     29 C8          -6.4840    -0.1840    -0.8920 ca         1 QBY      -0.100500
     30 H221         5.0400     1.1460     1.6000 h1         1 QBY       0.064200
     31 H222         3.3660     0.6520     1.3850 h1         1 QBY       0.064200
     32 H191         6.0350    -0.5410    -1.5940 h1         1 QBY       0.064200
     33 H192         6.7220     0.3830    -0.2590 h1         1 QBY       0.064200
     34 H211         4.6030    -0.8090     2.9910 h1         1 QBY       0.055200
     35 H212         3.9260    -1.7030     1.6210 h1         1 QBY       0.055200
     36 H201         7.1700    -2.0020     0.1030 h1         1 QBY       0.055200
     37 H202         5.4580    -2.4000    -0.1210 h1         1 QBY       0.055200
     38 H16          3.3140     3.1200    -0.7300 h4         1 QBY       0.029100
     39 H11C         1.6310    -1.2800     1.5590 h1         1 QBY       0.061200
     40 H12C        -0.0090    -1.7420     1.1050 h1         1 QBY       0.061200
     41 HC1          1.2090    -3.6980     2.0340 hc         1 QBY       0.047033
     42 HC2          0.8400    -3.9900     0.3370 hc         1 QBY       0.047033
     43 HC3          2.4750    -3.5280     0.8170 hc         1 QBY       0.047033
     44 H14         -0.9810     4.2590     0.1330 ha         1 QBY       0.151000
     45 H4          -1.2140    -0.6460    -0.4850 ha         1 QBY       0.164000
     46 H13         -3.1250     3.1170     0.3120 ha         1 QBY       0.140000
     47 H61C        -4.6150     1.6290     1.2150 h1         1 QBY       0.042700
     48 H62C        -4.8580     1.8670    -0.5230 h1         1 QBY       0.042700
     49 H12         -5.4590    -0.4360     2.3220 ha         1 QBY       0.132500
     50 H8          -6.2850     0.3780    -1.7970 ha         1 QBY       0.132500
     51 H11         -7.2080    -2.1750     2.3310 ha         1 QBY       0.133500
     52 H10         -8.5030    -2.6390     0.2750 ha         1 QBY       0.132000
     53 H9          -8.0380    -1.3580    -1.7900 ha         1 QBY       0.133500
@<TRIPOS>BOND
     1     1     2 2   
     2     2     3 1   
     3     2     9 1   
     4     3     4 1   
     5     3     8 1   
     6     4     5 1   
     7     4    30 1   
     8     4    31 1   
     9     5     6 1   
    10     5    34 1   
    11     5    35 1   
    12     6     7 1   
    13     7     8 1   
    14     7    36 1   
    15     7    37 1   
    16     8    32 1   
    17     8    33 1   
    18     9    10 ar  
    19     9    14 ar  
    20    10    11 1   
    21    10    17 ar  
    22    11    12 1   
    23    12    13 1   
    24    12    39 1   
    25    12    40 1   
    26    13    41 1   
    27    13    42 1   
    28    13    43 1   
    29    14    15 ar  
    30    14    38 1   
    31    15    16 ar  
    32    16    17 ar  
    33    16    18 ar  
    34    17    21 ar  
    35    18    19 ar  
    36    18    44 1   
    37    19    20 ar  
    38    19    46 1   
    39    20    21 ar  
    40    20    22 1   
    41    21    45 1   
    42    22    23 1   
    43    23    24 1   
    44    23    47 1   
    45    23    48 1   
    46    24    25 ar  
    47    24    29 ar  
    48    25    26 ar  
    49    25    49 1   
    50    26    27 ar  
    51    26    51 1   
    52    27    28 ar  
    53    27    52 1   
    54    28    29 ar  
    55    28    53 1   
    56    29    50 1   
@<TRIPOS>SUBSTRUCTURE
     1 QBY         1 TEMP              0 ****  ****    0 ROOT
