@<TRIPOS>MOLECULE
QBY
   53    56     1     0     0
SMALL
No Charge or Current Charge


@<TRIPOS>ATOM
      1 O1           4.4900     1.1980    -2.1820 o          1 QBY      -0.579100
      2 C18          3.9170     0.8940    -1.1430 c          1 QBY       0.631700
      3 N1           4.4770    -0.0380    -0.2430 n          1 QBY      -0.403800
      4 C22          4.2430     0.1240     1.2280 c6         1 QBY       0.063000
      5 C21          4.6860    -1.0960     2.0760 c6         1 QBY       0.133100
      6 O2           6.0240    -1.4940     1.7230 os         1 QBY      -0.443000
      7 C20          6.1300    -1.8970     0.3450 c6         1 QBY       0.133100
      8 C19          5.7630    -0.7190    -0.5930 c6         1 QBY       0.063000
      9 C17          2.5610     1.4500    -0.8340 ca         1 QBY      -0.145600
     10 C2           1.4030     0.6530    -0.6680 ca         1 QBY      -0.052000
     11 S            1.5100    -1.1350    -0.8550 ss         1 QBY      -0.195000
     12 C1           1.0930    -1.7920     0.8240 c3         1 QBY       0.056600
     13 C            1.3140    -3.3130     0.8680 c3         1 QBY      -0.084100
     14 C16          2.4460     2.8420    -0.7590 ca         1 QBY       0.352900
     15 N            1.2840     3.4760    -0.4970 nb         1 QBY      -0.636000
     16 C15          0.1620     2.7370    -0.3410 ca         1 QBY       0.230000
     17 C3           0.1690     1.3170    -0.4400 ca         1 QBY      -0.021000
     18 C14         -1.0580     3.3950    -0.0930 ca         1 QBY      -0.043000
     19 C13         -2.2610     2.6810     0.0360 ca         1 QBY      -0.176000
     20 C5          -2.2590     1.2800    -0.0960 ca         1 QBY       0.154100
     21 C4          -1.0520     0.6100    -0.3390 ca         1 QBY      -0.152000
     22 O           -3.4070     0.5220    -0.0020 os         1 QBY      -0.340100
     23 C6          -4.6960     1.1090     0.2450 c3         1 QBY       0.212900
     24 C7          -5.7320    -0.0070     0.2910 ca         1 QBY      -0.100300
     25 C12         -6.0310    -0.6490     1.5100 ca         1 QBY      -0.082500
     26 C11         -6.9870    -1.6780     1.5520 ca         1 QBY      -0.114500
     27 C10         -7.6490    -2.0730     0.3780 ca         1 QBY      -0.096000
     28 C9          -7.3540    -1.4380    -0.8400 ca         1 QBY      -0.114500
     29 C8          -6.3970    -0.4080    -0.8840 ca         1 QBY      -0.082500
     30 H221         4.8020     1.0060     1.5710 h1         1 QBY       0.064200
     31 H222         3.1830     0.3270     1.4280 h1         1 QBY       0.064200
     32 H191         5.7080    -1.0960    -1.6240 h1         1 QBY       0.064200
     33 H192         6.5740     0.0230    -0.5630 h1         1 QBY       0.064200
     34 H211         4.6540    -0.8420     3.1450 h1         1 QBY       0.055200
     35 H212         4.0040    -1.9420     1.9070 h1         1 QBY       0.055200
     36 H201         7.1570    -2.2320     0.1420 h1         1 QBY       0.055200
     37 H202         5.4530    -2.7450     0.1630 h1         1 QBY       0.055200
     38 H16          3.3200     3.4790    -0.8920 h4         1 QBY       0.029100
     39 H11C         1.7280    -1.3080     1.5740 h1         1 QBY       0.061200
     40 H12C         0.0480    -1.5660     1.0670 h1         1 QBY       0.061200
     41 HC1          1.0770    -3.7040     1.8640 hc         1 QBY       0.047033
     42 HC2          0.6720    -3.8170     0.1360 hc         1 QBY       0.047033
     43 HC3          2.3590    -3.5570     0.6400 hc         1 QBY       0.047033
     44 H14         -1.0690     4.4790    -0.0100 ha         1 QBY       0.133000
     45 H4          -1.0920    -0.4670    -0.4610 ha         1 QBY       0.146000
     46 H13         -3.1780     3.2330     0.2240 ha         1 QBY       0.122000
     47 H61C        -4.6980     1.6500     1.2000 h1         1 QBY       0.042700
     48 H62C        -4.9570     1.8180    -0.5510 h1         1 QBY       0.042700
     49 H12         -5.5210    -0.3500     2.4230 ha         1 QBY       0.114500
     50 H8          -6.1720     0.0760    -1.8320 ha         1 QBY       0.114500
     51 H11         -7.2140    -2.1700     2.4960 ha         1 QBY       0.115500
     52 H10         -8.3890    -2.8700     0.4110 ha         1 QBY       0.114000
     53 H9          -7.8640    -1.7440    -1.7510 ha         1 QBY       0.115500
@<TRIPOS>BOND
     1     1     2 2   
     2     2     3 1   
     3     2     9 1   
     4     3     4 1   
     5     3     8 1   
     6     4     5 1   
     7     4    30 1   
     8     4    31 1   
     9     5     6 1   
    10     5    34 1   
    11     5    35 1   
    12     6     7 1   
    13     7     8 1   
    14     7    36 1   
    15     7    37 1   
    16     8    32 1   
    17     8    33 1   
    18     9    10 ar  
    19     9    14 ar  
    20    10    11 1   
    21    10    17 ar  
    22    11    12 1   
    23    12    13 1   
    24    12    39 1   
    25    12    40 1   
    26    13    41 1   
    27    13    42 1   
    28    13    43 1   
    29    14    15 ar  
    30    14    38 1   
    31    15    16 ar  
    32    16    17 ar  
    33    16    18 ar  
    34    17    21 ar  
    35    18    19 ar  
    36    18    44 1   
    37    19    20 ar  
    38    19    46 1   
    39    20    21 ar  
    40    20    22 1   
    41    21    45 1   
    42    22    23 1   
    43    23    24 1   
    44    23    47 1   
    45    23    48 1   
    46    24    25 ar  
    47    24    29 ar  
    48    25    26 ar  
    49    25    49 1   
    50    26    27 ar  
    51    26    51 1   
    52    27    28 ar  
    53    27    52 1   
    54    28    29 ar  
    55    28    53 1   
    56    29    50 1   
@<TRIPOS>SUBSTRUCTURE
     1 QBY         1 TEMP              0 ****  ****    0 ROOT
