@<TRIPOS>MOLECULE
QC0
   58    62     1     0     0
SMALL
bcc


@<TRIPOS>ATOM
      1 C1           8.8600     1.9900    -1.7360 c3         1 QC0       0.152100
      2 N2           7.8570     1.1870    -1.0730 n3         1 QC0      -0.713600
      3 C3           7.4600     1.7600     0.1940 c6         1 QC0       0.155800
      4 C4           6.4700     0.8660     0.9160 c6         1 QC0       0.200800
      5 N5           5.3130     0.6000     0.0820 nh         1 QC0      -0.653000
      6 C6           5.6860     0.0870    -1.2300 c6         1 QC0       0.200800
      7 C7           6.6900     0.9970    -1.9060 c6         1 QC0       0.155800
      8 C8           4.1710     0.0860     0.6790 ca         1 QC0       0.150600
      9 C9           4.1230    -0.2260     2.0560 ca         1 QC0      -0.159000
     10 C10          2.9780    -0.7030     2.6520 ca         1 QC0      -0.086000
     11 C11          1.8150    -0.9160     1.9070 ca         1 QC0       0.137400
     12 N12          0.6890    -1.4110     2.5250 nc         1 QC0      -0.611100
     13 C13         -0.3440    -1.5930     1.7980 cd         1 QC0       0.500800
     14 N14         -0.4200    -1.3290     0.4530 n          1 QC0      -0.332500
     15 C15         -1.6580    -1.5670    -0.2230 ca         1 QC0       0.049600
     16 C16         -2.6710    -0.6380    -0.0400 ca         1 QC0      -0.141000
     17 C17         -3.9060    -0.8420    -0.6530 ca         1 QC0       0.078600
     18 N18         -5.0020     0.0140    -0.5300 ns         1 QC0      -0.469100
     19 C19         -5.1350     1.1280     0.2350 c          1 QC0       0.719700
     20 O20         -4.2350     1.6070     0.9050 o          1 QC0      -0.572100
     21 C21         -6.4700     1.7510     0.2130 cc         1 QC0      -0.301900
     22 C22         -6.7630     3.0520     0.7340 cc         1 QC0      -0.213300
     23 C23         -8.0880     3.2310     0.5580 cd         1 QC0       0.220600
     24 O24         -8.6350     2.1380    -0.0240 os         1 QC0      -0.314800
     25 C25         -7.6570     1.2520    -0.2280 cd         1 QC0       0.269600
     26 C26         -4.0730    -1.9760    -1.4480 ca         1 QC0      -0.177000
     27 C27         -3.0440    -2.8850    -1.6120 ca         1 QC0      -0.097000
     28 C28         -1.8060    -2.7120    -0.9990 ca         1 QC0      -0.075300
     29 C29         -0.7040    -3.7120    -1.1670 c3         1 QC0      -0.045800
     30 C30          0.6490    -0.8140    -0.2640 c          1 QC0       0.719100
     31 C32          1.8530    -0.6170     0.5380 ca         1 QC0      -0.161600
     32 C31          3.0070    -0.1220    -0.0610 ca         1 QC0      -0.121000
     33 O31          0.5480    -0.5630    -1.4500 o          1 QC0      -0.600500
     34 H11C         9.7430     2.0860    -1.1030 h1         1 QC0       0.032367
     35 H12C         9.1640     1.5100    -2.6670 h1         1 QC0       0.032367
     36 H13C         8.5070     3.0040    -1.9800 h1         1 QC0       0.032367
     37 H31C         8.3410     1.8780     0.8290 h1         1 QC0       0.041200
     38 H32C         7.0150     2.7630     0.0670 h1         1 QC0       0.041200
     39 H71C         6.2040     1.9580    -2.1540 h1         1 QC0       0.041200
     40 H72C         6.9890     0.5360    -2.8510 h1         1 QC0       0.041200
     41 H41C         6.9700    -0.0650     1.2220 h1         1 QC0       0.045950
     42 H42C         6.1570     1.3840     1.8230 h1         1 QC0       0.045950
     43 H61C         6.1100    -0.9230    -1.1380 h1         1 QC0       0.045950
     44 H62C         4.8120     0.0170    -1.8720 h1         1 QC0       0.045950
     45 H9           4.9990    -0.1070     2.6770 ha         1 QC0       0.134000
     46 H10          2.9750    -0.9340     3.7090 ha         1 QC0       0.148000
     47 H13         -1.2540    -1.9880     2.2350 h5         1 QC0       0.052800
     48 H16         -2.4830     0.2280     0.5740 ha         1 QC0       0.179000
     49 H18         -5.7960    -0.2490    -1.0940 hn         1 QC0       0.315500
     50 H26         -5.0240    -2.1560    -1.9370 ha         1 QC0       0.129000
     51 H22         -6.0690     3.7510     1.1690 ha         1 QC0       0.181000
     52 H25         -7.9470     0.3120    -0.6720 h4         1 QC0       0.053100
     53 H23         -8.7580     4.0440     0.7860 h4         1 QC0       0.060100
     54 H27         -3.2140    -3.7600    -2.2270 ha         1 QC0       0.135000
     55 H291        -0.2860    -4.0240    -0.2090 hc         1 QC0       0.048367
     56 H292        -1.0670    -4.6030    -1.6760 hc         1 QC0       0.048367
     57 H293         0.1170    -3.3080    -1.7620 hc         1 QC0       0.048367
     58 H31          2.9710     0.1110    -1.1160 ha         1 QC0       0.155000
@<TRIPOS>BOND
     1     1     2 1   
     2     1    34 1   
     3     1    35 1   
     4     1    36 1   
     5     2     3 1   
     6     2     7 1   
     7     3     4 1   
     8     3    37 1   
     9     3    38 1   
    10     4     5 1   
    11     4    41 1   
    12     4    42 1   
    13     5     6 1   
    14     5     8 1   
    15     6     7 1   
    16     6    43 1   
    17     6    44 1   
    18     7    39 1   
    19     7    40 1   
    20     8     9 ar  
    21     8    32 ar  
    22     9    10 ar  
    23     9    45 1   
    24    10    11 ar  
    25    10    46 1   
    26    11    12 1   
    27    11    31 ar  
    28    12    13 2   
    29    13    14 1   
    30    13    47 1   
    31    14    15 1   
    32    14    30 1   
    33    15    16 ar  
    34    15    28 ar  
    35    16    17 ar  
    36    16    48 1   
    37    17    18 1   
    38    17    26 ar  
    39    18    19 1   
    40    18    49 1   
    41    19    20 2   
    42    19    21 1   
    43    21    22 1   
    44    21    25 2   
    45    22    23 2   
    46    22    51 1   
    47    23    24 1   
    48    23    53 1   
    49    24    25 1   
    50    25    52 1   
    51    26    27 ar  
    52    26    50 1   
    53    27    28 ar  
    54    27    54 1   
    55    28    29 1   
    56    29    55 1   
    57    29    56 1   
    58    29    57 1   
    59    30    31 1   
    60    30    33 2   
    61    31    32 ar  
    62    32    58 1   
@<TRIPOS>SUBSTRUCTURE
     1 QC0         1 TEMP              0 ****  ****    0 ROOT
