@<TRIPOS>MOLECULE
QC0
   58    62     1     0     0
SMALL
No Charge or Current Charge


@<TRIPOS>ATOM
      1 C1           8.9490     2.2660    -1.8010 c3         1 QC0       0.152100
      2 N2           8.0400     1.3770    -1.0460 n3         1 QC0      -0.713600
      3 C3           7.4360     2.0480     0.1460 c6         1 QC0       0.155800
      4 C4           6.5100     1.0970     0.9740 c6         1 QC0       0.200800
      5 N5           5.4610     0.4370     0.1310 nh         1 QC0      -0.791400
      6 C6           6.0230    -0.1800    -1.1150 c6         1 QC0       0.200800
      7 C7           6.9590     0.7960    -1.9000 c6         1 QC0       0.155800
      8 C8           4.2750    -0.0820     0.7040 ca         1 QC0       0.289000
      9 C9           4.2290    -0.5000     2.0470 ca         1 QC0      -0.141000
     10 C10          3.0400    -1.0130     2.5950 ca         1 QC0      -0.068000
     11 C11          1.8660    -1.1230     1.8260 ca         1 QC0       0.137400
     12 N12          0.7260    -1.6480     2.4560 nc         1 QC0      -0.611100
     13 C13         -0.3540    -1.7240     1.6660 cd         1 QC0       0.500800
     14 N14         -0.4120    -1.3310     0.3400 n          1 QC0      -0.265500
     15 C15         -1.7090    -1.5700    -0.2150 ca         1 QC0       0.049600
     16 C16         -2.7310    -0.6270     0.0040 ca         1 QC0      -0.123000
     17 C17         -4.0230    -0.8290    -0.5260 ca         1 QC0      -0.014000
     18 N18         -5.1020     0.0810    -0.3470 ns         1 QC0      -0.143000
     19 C19         -5.2230     1.2580     0.3820 c          1 QC0       0.652700
     20 O20         -4.3310     1.7420     1.0680 o          1 QC0      -0.572100
     21 C21         -6.5560     1.8910     0.2590 cc         1 QC0      -0.236600
     22 C22         -6.9820     3.0860     0.8800 cc         1 QC0      -0.130000
     23 C23         -8.2750     3.2880     0.4870 cd         1 QC0       0.110900
     24 O24         -8.7070     2.2870    -0.3540 os         1 QC0      -0.226000
     25 C25         -7.6250     1.4430    -0.4740 cd         1 QC0       0.159900
     26 C26         -4.2710    -1.9870    -1.2830 ca         1 QC0      -0.159000
     27 C27         -3.2550    -2.9310    -1.5060 ca         1 QC0      -0.079000
     28 C28         -1.9680    -2.7330    -0.9750 ca         1 QC0      -0.075300
     29 C29         -0.8790    -3.7730    -1.2250 c3         1 QC0      -0.045800
     30 C30          0.6760    -0.8100    -0.3360 c          1 QC0       0.576600
     31 C32          1.9100    -0.7020     0.4820 ca         1 QC0      -0.161600
     32 C31          3.1060    -0.1870    -0.0690 ca         1 QC0      -0.103000
     33 O31          0.6190    -0.4680    -1.5110 o          1 QC0      -0.525000
     34 H11C         9.7550     2.6370    -1.1540 h1         1 QC0       0.032367
     35 H12C         9.4090     1.7270    -2.6400 h1         1 QC0       0.032367
     36 H13C         8.4060     3.1320    -2.2050 h1         1 QC0       0.032367
     37 H31C         8.2260     2.4290     0.8100 h1         1 QC0       0.041200
     38 H32C         6.8420     2.9170    -0.1730 h1         1 QC0       0.041200
     39 H71C         6.3410     1.6020    -2.3240 h1         1 QC0       0.041200
     40 H72C         7.3970     0.2510    -2.7490 h1         1 QC0       0.041200
     41 H41C         7.1350     0.3310     1.4550 h1         1 QC0       0.045950
     42 H42C         6.0390     1.6880     1.7730 h1         1 QC0       0.045950
     43 H61C         6.5990    -1.0790    -0.8490 h1         1 QC0       0.045950
     44 H62C         5.2190    -0.5020    -1.7910 h1         1 QC0       0.045950
     45 H9           5.1140    -0.4430     2.6730 ha         1 QC0       0.116000
     46 H10          3.0290    -1.3340     3.6340 ha         1 QC0       0.130000
     47 H13         -1.2680    -2.1260     2.0880 h5         1 QC0       0.052800
     48 H16         -2.4930     0.2600     0.5830 ha         1 QC0       0.161000
     49 H18         -5.9390    -0.1810    -0.8490 hn         1 QC0       0.149000
     50 H26         -5.2590    -2.1620    -1.7030 ha         1 QC0       0.111000
     51 H22         -6.3900     3.7160     1.5390 ha         1 QC0       0.163000
     52 H25         -7.7450     0.5700    -1.1020 h4         1 QC0       0.053100
     53 H23         -8.9740     4.0800     0.7280 h4         1 QC0       0.060100
     54 H27         -3.4730    -3.8200    -2.0950 ha         1 QC0       0.117000
     55 H291        -0.4350    -4.1180    -0.2840 hc         1 QC0       0.048367
     56 H292        -1.2700    -4.6560    -1.7440 hc         1 QC0       0.048367
     57 H293        -0.0740    -3.3580    -1.8440 hc         1 QC0       0.048367
     58 H31          3.1250     0.1470    -1.1020 ha         1 QC0       0.137000
@<TRIPOS>BOND
     1     1     2 1   
     2     1    34 1   
     3     1    35 1   
     4     1    36 1   
     5     2     3 1   
     6     2     7 1   
     7     3     4 1   
     8     3    37 1   
     9     3    38 1   
    10     4     5 1   
    11     4    41 1   
    12     4    42 1   
    13     5     6 1   
    14     5     8 1   
    15     6     7 1   
    16     6    43 1   
    17     6    44 1   
    18     7    39 1   
    19     7    40 1   
    20     8     9 ar  
    21     8    32 ar  
    22     9    10 ar  
    23     9    45 1   
    24    10    11 ar  
    25    10    46 1   
    26    11    12 1   
    27    11    31 ar  
    28    12    13 2   
    29    13    14 1   
    30    13    47 1   
    31    14    15 1   
    32    14    30 1   
    33    15    16 ar  
    34    15    28 ar  
    35    16    17 ar  
    36    16    48 1   
    37    17    18 1   
    38    17    26 ar  
    39    18    19 1   
    40    18    49 1   
    41    19    20 2   
    42    19    21 1   
    43    21    22 1   
    44    21    25 2   
    45    22    23 2   
    46    22    51 1   
    47    23    24 1   
    48    23    53 1   
    49    24    25 1   
    50    25    52 1   
    51    26    27 ar  
    52    26    50 1   
    53    27    28 ar  
    54    27    54 1   
    55    28    29 1   
    56    29    55 1   
    57    29    56 1   
    58    29    57 1   
    59    30    31 1   
    60    30    33 2   
    61    31    32 ar  
    62    32    58 1   
@<TRIPOS>SUBSTRUCTURE
     1 QC0         1 TEMP              0 ****  ****    0 ROOT
