@<TRIPOS>MOLECULE
QC1
   28    29     1     0     0
SMALL
No Charge or Current Charge


@<TRIPOS>ATOM
      1 F18         -5.7100     0.9250     0.1240 f          1 QC1      -0.193000
      2 C15         -4.4890     0.3500     0.0630 ca         1 QC1       0.162000
      3 C14         -3.7930     0.3190    -1.1550 ca         1 QC1      -0.159000
      4 C13         -2.5220    -0.2790    -1.2200 ca         1 QC1      -0.063500
      5 C16         -3.9230    -0.2110     1.2170 ca         1 QC1      -0.159000
      6 C17         -2.6520    -0.8090     1.1540 ca         1 QC1      -0.063500
      7 C12         -1.9460    -0.8480    -0.0650 ca         1 QC1      -0.096300
      8 C11         -0.5710    -1.4950    -0.1340 c3         1 QC1       0.281100
      9 N10          0.4610    -0.5070     0.1830 nu         1 QC1      -0.978200
     10 C2           1.8490    -0.6940     0.1160 ca         1 QC1       0.306000
     11 C1           2.7190     0.4140    -0.0360 ca         1 QC1      -0.189600
     12 C7           2.2310     1.8480    -0.1280 c          1 QC1       0.722600
     13 O9           3.0500     2.7420     0.0270 o          1 QC1      -0.718000
     14 O8           1.0510     2.0710    -0.3640 o          1 QC1      -0.718000
     15 C3           2.4270    -1.9960     0.2060 ca         1 QC1       0.200900
     16 N4           3.7590    -2.2470     0.1510 nb         1 QC1      -0.668000
     17 C5           4.5780    -1.1850     0.0030 ca         1 QC1       0.228900
     18 C6           4.1100     0.1380    -0.0910 ca         1 QC1      -0.093000
     19 H1          -4.2380     0.7560    -2.0450 ha         1 QC1       0.122000
     20 H2          -1.9840    -0.3010    -2.1660 ha         1 QC1       0.121500
     21 H3          -4.4670    -0.1810     2.1580 ha         1 QC1       0.122000
     22 H4          -2.2130    -1.2410     2.0520 ha         1 QC1       0.121500
     23 H5          -0.5230    -2.3340     0.5740 h1         1 QC1       0.026200
     24 H7           1.7970    -2.8770     0.3290 h4         1 QC1      -0.012900
     25 H8           5.6450    -1.4000    -0.0400 h4         1 QC1      -0.009900
     26 H9           4.8340     0.9400    -0.2080 ha         1 QC1       0.131000
     27 H10         -0.4060    -1.8970    -1.1430 h1         1 QC1       0.026200
     28 H11          0.2060     0.4790     0.0130 hn         1 QC1       0.551000
@<TRIPOS>BOND
     1     1     2 1   
     2     2     3 ar  
     3     2     5 ar  
     4     3     4 ar  
     5     3    19 1   
     6     4     7 ar  
     7     4    20 1   
     8     5     6 ar  
     9     5    21 1   
    10     6     7 ar  
    11     6    22 1   
    12     7     8 1   
    13     8     9 1   
    14     8    23 1   
    15     8    27 1   
    16     9    10 1   
    17     9    28 1   
    18    10    11 ar  
    19    10    15 ar  
    20    11    12 1   
    21    11    18 ar  
    22    12    13 1   
    23    12    14 1   
    24    15    16 ar  
    25    15    24 1   
    26    16    17 ar  
    27    17    18 ar  
    28    17    25 1   
    29    18    26 1   
@<TRIPOS>SUBSTRUCTURE
     1 QC1         1 TEMP              0 ****  ****    0 ROOT
