@<TRIPOS>MOLECULE
QC1
   28    29     1     0     0
SMALL
abcg2


@<TRIPOS>ATOM
      1 F18         -5.6670     0.7920     0.2190 f          1 QC1      -0.193000
      2 C15         -4.4390     0.2610     0.0970 ca         1 QC1       0.162000
      3 C14         -3.9430     0.0060    -1.1650 ca         1 QC1      -0.159000
      4 C13         -2.6720    -0.5450    -1.2780 ca         1 QC1      -0.063500
      5 C16         -3.7130    -0.0150     1.2410 ca         1 QC1      -0.159000
      6 C17         -2.4480    -0.5650     1.1050 ca         1 QC1      -0.063500
      7 C12         -1.9140    -0.8410    -0.1520 ca         1 QC1      -0.096300
      8 C11         -0.5310    -1.4170    -0.2760 c3         1 QC1       0.281100
      9 N10          0.4460    -0.4070     0.0490 nu         1 QC1      -0.978200
     10 C2           1.7860    -0.6360     0.0350 ca         1 QC1       0.306000
     11 C1           2.7210     0.4260     0.0940 ca         1 QC1      -0.189600
     12 C7           2.3230     1.8960     0.0920 c          1 QC1       0.722600
     13 O9           3.2380     2.7270     0.2070 o          1 QC1      -0.718000
     14 O8           1.1040     2.1620    -0.0400 o          1 QC1      -0.718000
     15 C3           2.3070    -1.9440    -0.0220 ca         1 QC1       0.200900
     16 N4           3.5960    -2.2360     0.0100 nb         1 QC1      -0.668000
     17 C5           4.4680    -1.2370     0.0920 ca         1 QC1       0.228900
     18 C6           4.0660     0.0880     0.1300 ca         1 QC1      -0.093000
     19 H1          -4.5320     0.2320    -2.0450 ha         1 QC1       0.122000
     20 H2          -2.2720    -0.7470    -2.2640 ha         1 QC1       0.121500
     21 H3          -4.1280     0.1920     2.2190 ha         1 QC1       0.122000
     22 H4          -1.8720    -0.7870     1.9950 ha         1 QC1       0.121500
     23 H5          -0.4340    -2.2650     0.4090 h1         1 QC1       0.026200
     24 H7           1.6330    -2.7910    -0.0950 h4         1 QC1      -0.012900
     25 H8           5.5190    -1.4990     0.1200 h4         1 QC1      -0.009900
     26 H9           4.8090     0.8720     0.1800 ha         1 QC1       0.131000
     27 H10         -0.3870    -1.8180    -1.2880 h1         1 QC1       0.026200
     28 H11          0.2170     0.5740    -0.0940 hn         1 QC1       0.551000
@<TRIPOS>BOND
     1     1     2 1   
     2     2     3 ar  
     3     2     5 ar  
     4     3     4 ar  
     5     3    19 1   
     6     4     7 ar  
     7     4    20 1   
     8     5     6 ar  
     9     5    21 1   
    10     6     7 ar  
    11     6    22 1   
    12     7     8 1   
    13     8     9 1   
    14     8    23 1   
    15     8    27 1   
    16     9    10 1   
    17     9    28 1   
    18    10    11 ar  
    19    10    15 ar  
    20    11    12 1   
    21    11    18 ar  
    22    12    13 1   
    23    12    14 1   
    24    15    16 ar  
    25    15    24 1   
    26    16    17 ar  
    27    17    18 ar  
    28    17    25 1   
    29    18    26 1   
@<TRIPOS>SUBSTRUCTURE
     1 QC1         1 TEMP              0 ****  ****    0 ROOT
