@<TRIPOS>MOLECULE
QC2
   31    33     1     0     0
SMALL
abcg2


@<TRIPOS>ATOM
      1 O8           4.7630    -0.4040     1.0050 o          1 QC2      -0.705500
      2 C7           4.4370     0.5500     0.2780 c          1 QC2       0.715600
      3 O9           5.1400     1.5090    -0.0840 o          1 QC2      -0.705500
      4 C1           2.9950     0.5450    -0.2320 ca         1 QC2      -0.107600
      5 C2           2.1320    -0.4920     0.0910 ca         1 QC2      -0.101000
      6 C6           2.5010     1.5780    -1.0220 ca         1 QC2      -0.130000
      7 C5           1.1870     1.5220    -1.4540 ca         1 QC2       0.305900
      8 N4           0.3640     0.5210    -1.1650 nb         1 QC2      -0.708000
      9 C3           0.8370    -0.4460    -0.4050 ca         1 QC2       0.385500
     10 N10         -0.0610    -1.4960    -0.1080 na         1 QC2       0.145300
     11 N14          0.3760    -2.7580    -0.1680 nc         1 QC2      -0.490800
     12 C13         -0.6840    -3.5060     0.0490 cd         1 QC2       0.221900
     13 C12         -1.8320    -2.7220     0.2520 cd         1 QC2      -0.243000
     14 C11         -1.3950    -1.4210     0.1490 cc         1 QC2      -0.079000
     15 C15         -2.1430    -0.1800     0.3740 ca         1 QC2       0.051000
     16 C20         -3.3690    -0.0100    -0.2610 ca         1 QC2      -0.184000
     17 C19         -4.1290     1.1320    -0.0260 ca         1 QC2       0.125100
     18 O21         -5.3170     1.3430    -0.6260 oh         1 QC2      -0.545100
     19 C18         -3.6610     2.1070     0.8510 ca         1 QC2      -0.150000
     20 C17         -2.4420     1.9260     1.4850 ca         1 QC2      -0.079000
     21 C16         -1.6780     0.7920     1.2570 ca         1 QC2      -0.112000
     22 H2           2.4590    -1.3110     0.7150 ha         1 QC2       0.159000
     23 H3           3.1300     2.4120    -1.3010 ha         1 QC2       0.140000
     24 H4           0.7780     2.3140    -2.0730 h4         1 QC2       0.000100
     25 H5          -0.5980    -4.5820     0.0540 h4         1 QC2       0.026100
     26 H6          -2.8320    -3.0500     0.4830 ha         1 QC2       0.132000
     27 H7          -3.7270    -0.7680    -0.9500 ha         1 QC2       0.114000
     28 H8          -5.5250     0.6190    -1.2270 ho         1 QC2       0.459000
     29 H9          -4.2510     2.9970     1.0340 ha         1 QC2       0.117000
     30 H10         -2.0850     2.6810     2.1730 ha         1 QC2       0.112000
     31 H11         -0.7370     0.6610     1.7750 ha         1 QC2       0.132000
@<TRIPOS>BOND
     1     1     2 1   
     2     2     3 1   
     3     2     4 1   
     4     4     5 ar  
     5     4     6 ar  
     6     5     9 ar  
     7     5    22 1   
     8     6     7 ar  
     9     6    23 1   
    10     7     8 ar  
    11     7    24 1   
    12     8     9 ar  
    13     9    10 1   
    14    10    11 1   
    15    10    14 1   
    16    11    12 2   
    17    12    13 1   
    18    12    25 1   
    19    13    14 2   
    20    13    26 1   
    21    14    15 1   
    22    15    16 ar  
    23    15    21 ar  
    24    16    17 ar  
    25    16    27 1   
    26    17    18 1   
    27    17    19 ar  
    28    18    28 1   
    29    19    20 ar  
    30    19    29 1   
    31    20    21 ar  
    32    20    30 1   
    33    21    31 1   
@<TRIPOS>SUBSTRUCTURE
     1 QC2         1 TEMP              0 ****  ****    0 ROOT
