@<TRIPOS>MOLECULE
QC2
   31    33     1     0     0
SMALL
No Charge or Current Charge


@<TRIPOS>ATOM
      1 O8           4.3310    -0.1140     1.7560 o          1 QC2      -0.705500
      2 C7           4.1940     0.7050     0.8580 c          1 QC2       0.715600
      3 O9           4.9980     1.6010     0.6430 o          1 QC2      -0.705500
      4 C1           2.9680     0.6050    -0.0310 ca         1 QC2      -0.107600
      5 C2           2.0040    -0.4130     0.1520 ca         1 QC2      -0.101000
      6 C6           2.7350     1.5200    -1.0780 ca         1 QC2      -0.130000
      7 C5           1.5880     1.3830    -1.8710 ca         1 QC2       0.305900
      8 N4           0.6740     0.4060    -1.6860 nb         1 QC2      -0.708000
      9 C3           0.8630    -0.4940    -0.6800 ca         1 QC2       0.385500
     10 N10         -0.0310    -1.5430    -0.4000 na         1 QC2       0.145300
     11 N14          0.3510    -2.8610    -0.5900 nc         1 QC2      -0.490800
     12 C13         -0.7720    -3.5060    -0.3160 cd         1 QC2       0.221900
     13 C12         -1.8440    -2.6430     0.0210 cd         1 QC2      -0.243000
     14 C11         -1.3650    -1.3650    -0.0480 cc         1 QC2      -0.079000
     15 C15         -2.1380    -0.1660     0.2990 ca         1 QC2       0.051000
     16 C20         -3.5250    -0.1220     0.0400 ca         1 QC2      -0.184000
     17 C19         -4.2760     1.0170     0.3720 ca         1 QC2       0.125100
     18 O21         -5.6130     1.0550     0.1130 oh         1 QC2      -0.545100
     19 C18         -3.6530     2.1220     0.9700 ca         1 QC2      -0.150000
     20 C17         -2.2760     2.0880     1.2400 ca         1 QC2      -0.079000
     21 C16         -1.5230     0.9490     0.9070 ca         1 QC2      -0.112000
     22 H2           2.1300    -1.1470     0.9440 ha         1 QC2       0.159000
     23 H3           3.4290     2.3310    -1.2830 ha         1 QC2       0.140000
     24 H4           1.3910     2.0790    -2.6860 h4         1 QC2       0.000100
     25 H5          -0.7830    -4.5880    -0.3670 h4         1 QC2       0.026100
     26 H6          -2.8460    -2.9500     0.2980 ha         1 QC2       0.132000
     27 H7          -4.0120    -0.9710    -0.4300 ha         1 QC2       0.114000
     28 H8          -5.8730     0.2050    -0.3030 ho         1 QC2       0.459000
     29 H9          -4.2370     3.0030     1.2270 ha         1 QC2       0.117000
     30 H10         -1.7920     2.9420     1.7100 ha         1 QC2       0.112000
     31 H11         -0.4630     0.9350     1.1410 ha         1 QC2       0.132000
@<TRIPOS>BOND
     1     1     2 1   
     2     2     3 1   
     3     2     4 1   
     4     4     5 ar  
     5     4     6 ar  
     6     5     9 ar  
     7     5    22 1   
     8     6     7 ar  
     9     6    23 1   
    10     7     8 ar  
    11     7    24 1   
    12     8     9 ar  
    13     9    10 1   
    14    10    11 1   
    15    10    14 1   
    16    11    12 2   
    17    12    13 1   
    18    12    25 1   
    19    13    14 2   
    20    13    26 1   
    21    14    15 1   
    22    15    16 ar  
    23    15    21 ar  
    24    16    17 ar  
    25    16    27 1   
    26    17    18 1   
    27    17    19 ar  
    28    18    28 1   
    29    19    20 ar  
    30    19    29 1   
    31    20    21 ar  
    32    20    30 1   
    33    21    31 1   
@<TRIPOS>SUBSTRUCTURE
     1 QC2         1 TEMP              0 ****  ****    0 ROOT
