@<TRIPOS>MOLECULE
QC3
   38    41     1     0     0
SMALL
abcg2


@<TRIPOS>ATOM
      1 N1         -16.9320     3.9260    25.7600 nb         1 QC3      -0.657000
      2 C4         -22.0930     4.4960    30.2530 ca         1 QC3      -0.056300
      3 C5         -21.7330     3.1600    30.4340 ca         1 QC3      -0.088000
      4 C6         -21.7270     5.2080    28.9800 c5         1 QC3      -0.102400
      5 C7         -22.3590     4.6450    27.6950 c5         1 QC3      -0.087400
      6 C8         -21.3400     4.9720    26.5990 c5         1 QC3       0.106000
      7 C10        -18.8130     5.1000    26.6900 ca         1 QC3      -0.078000
      8 C13        -16.9880     6.3350    25.6920 ca         1 QC3      -0.095000
      9 C15        -16.9860     8.7470    25.6040 ca         1 QC3      -0.110000
     10 C17        -18.8620     7.6000    26.6240 ca         1 QC3      -0.099000
     11 C9         -20.2260     5.1870    28.6780 c          1 QC3       0.562000
     12 C3         -22.7940     5.1510    31.2640 ca         1 QC3      -0.096000
     13 C2         -23.1370     4.4840    32.4360 ca         1 QC3      -0.100000
     14 C1         -22.7810     3.1530    32.6200 ca         1 QC3      -0.097000
     15 C          -22.0780     2.5120    31.6080 ca         1 QC3       0.127000
     16 CL         -21.6110     0.8350    31.8240 cl         1 QC3      -0.212000
     17 N          -20.0730     5.0260    27.3390 n          1 QC3      -0.257400
     18 C18        -18.2500     6.3560    26.3480 ca         1 QC3      -0.007000
     19 C16        -18.2390     8.7660    26.2570 ca         1 QC3      -0.088000
     20 C14        -16.3710     7.5540    25.3260 ca         1 QC3      -0.080000
     21 C12        -16.3920     5.0780    25.4310 ca         1 QC3       0.365900
     22 C11        -18.1370     3.9470    26.3860 ca         1 QC3       0.338900
     23 H1         -21.1830     2.6280    29.6680 ha         1 QC3       0.131000
     24 H2         -21.9870     6.2670    29.0840 hc         1 QC3       0.078700
     25 H3         -23.3380     5.0730    27.4900 hc         1 QC3       0.063200
     26 H4         -22.4680     3.5640    27.7840 hc         1 QC3       0.063200
     27 H5         -21.5370     5.9370    26.1240 h1         1 QC3       0.052200
     28 H6         -21.2880     4.2070    25.8250 h1         1 QC3       0.052200
     29 H7         -16.5150     9.6810    25.3250 ha         1 QC3       0.118000
     30 H8         -19.8200     7.6260    27.1240 ha         1 QC3       0.118000
     31 H9         -23.0730     6.1890    31.1310 ha         1 QC3       0.115000
     32 H10        -23.6840     5.0000    33.2140 ha         1 QC3       0.120000
     33 H11        -23.0400     2.6250    33.5280 ha         1 QC3       0.131000
     34 H12        -18.7100     9.7170    26.4710 ha         1 QC3       0.116000
     35 H13        -15.4100     7.5250    24.8270 ha         1 QC3       0.119000
     36 H14        -15.4280     5.0510    24.9300 h4         1 QC3       0.022100
     37 H15        -18.5670     2.9890    26.6500 h4         1 QC3       0.028100
     38 O          -19.3190     5.3230    29.4870 o          1 QC3      -0.518000
@<TRIPOS>BOND
     1     1    21 ar  
     2     1    22 ar  
     3     2     3 ar  
     4     2     4 1   
     5     2    12 ar  
     6     3    15 ar  
     7     3    23 1   
     8     4     5 1   
     9     4    11 1   
    10     4    24 1   
    11     5     6 1   
    12     5    25 1   
    13     5    26 1   
    14     6    17 1   
    15     6    27 1   
    16     6    28 1   
    17     7    17 1   
    18     7    18 ar  
    19     7    22 ar  
    20     8    18 ar  
    21     8    20 ar  
    22     8    21 ar  
    23     9    19 ar  
    24     9    20 ar  
    25     9    29 1   
    26    10    18 ar  
    27    10    19 ar  
    28    10    30 1   
    29    11    17 1   
    30    11    38 2   
    31    12    13 ar  
    32    12    31 1   
    33    13    14 ar  
    34    13    32 1   
    35    14    15 ar  
    36    14    33 1   
    37    15    16 1   
    38    19    34 1   
    39    20    35 1   
    40    21    36 1   
    41    22    37 1   
@<TRIPOS>SUBSTRUCTURE
     1 QC3         1 TEMP              0 ****  ****    0 ROOT
