@<TRIPOS>MOLECULE
QC3
   38    41     1     0     0
SMALL
No Charge or Current Charge


@<TRIPOS>ATOM
      1 N1         -17.4910     4.0660    24.9630 nb         1 QC3      -0.657000
      2 C4         -22.0910     4.5550    30.1940 ca         1 QC3      -0.056300
      3 C5         -21.3440     3.4570    30.6730 ca         1 QC3      -0.088000
      4 C6         -21.8660     5.1250    28.7910 c5         1 QC3      -0.102400
      5 C7         -22.3110     4.0610    27.7500 c5         1 QC3      -0.087400
      6 C8         -21.6300     4.6120    26.4600 c5         1 QC3       0.106000
      7 C10        -19.1900     5.3250    26.1950 ca         1 QC3      -0.078000
      8 C13        -17.0490     6.3470    25.6570 ca         1 QC3      -0.095000
      9 C15        -16.5230     8.6240    26.3450 ca         1 QC3      -0.110000
     10 C17        -18.6770     7.6430    26.9220 ca         1 QC3      -0.099000
     11 C9         -20.4060     5.3750    28.3910 c          1 QC3       0.562000
     12 C3         -23.0630     5.1330    31.0350 ca         1 QC3      -0.096000
     13 C2         -23.2880     4.6260    32.3270 ca         1 QC3      -0.100000
     14 C1         -22.5390     3.5330    32.7930 ca         1 QC3      -0.097000
     15 C          -21.5680     2.9510    31.9640 ca         1 QC3       0.127000
     16 Cl         -20.6270     1.5820    32.5440 cl         1 QC3      -0.212000
     17 N          -20.3920     5.2340    26.9920 n          1 QC3      -0.257400
     18 C18        -18.3120     6.4360    26.2830 ca         1 QC3      -0.007000
     19 C16        -17.7830     8.7270    26.9570 ca         1 QC3      -0.088000
     20 C14        -16.1570     7.4370    25.6910 ca         1 QC3      -0.080000
     21 C12        -16.6910     5.1540    25.0020 ca         1 QC3       0.365900
     22 C11        -18.6960     4.1540    25.5700 ca         1 QC3       0.338900
     23 H1         -20.5850     2.9930    30.0490 ha         1 QC3       0.131000
     24 H2         -22.4290     6.0430    28.5810 hc         1 QC3       0.078700
     25 H3         -23.4000     3.9810    27.6520 hc         1 QC3       0.063200
     26 H4         -21.9260     3.0620    27.9870 hc         1 QC3       0.063200
     27 H5         -22.2540     5.3750    25.9760 h1         1 QC3       0.052200
     28 H6         -21.4350     3.8170    25.7300 h1         1 QC3       0.052200
     29 H7         -15.8350     9.4660    26.3720 ha         1 QC3       0.118000
     30 H8         -19.6550     7.7590    27.3800 ha         1 QC3       0.118000
     31 H9         -23.6510     5.9800    30.6860 ha         1 QC3       0.115000
     32 H10        -24.0420     5.0810    32.9660 ha         1 QC3       0.120000
     33 H11        -22.7100     3.1390    33.7910 ha         1 QC3       0.131000
     34 H12        -18.0710     9.6520    27.4530 ha         1 QC3       0.116000
     35 H13        -15.1820     7.3650    25.2130 ha         1 QC3       0.119000
     36 H14        -15.7240     5.0570    24.5080 h4         1 QC3       0.022100
     37 H15        -19.2860     3.2380    25.5670 h4         1 QC3       0.028100
     38 O          -19.4130     5.4740    29.1010 o          1 QC3      -0.518000
@<TRIPOS>BOND
     1     1    21 ar  
     2     1    22 ar  
     3     2     3 ar  
     4     2     4 1   
     5     2    12 ar  
     6     3    15 ar  
     7     3    23 1   
     8     4     5 1   
     9     4    11 1   
    10     4    24 1   
    11     5     6 1   
    12     5    25 1   
    13     5    26 1   
    14     6    17 1   
    15     6    27 1   
    16     6    28 1   
    17     7    17 1   
    18     7    18 ar  
    19     7    22 ar  
    20     8    18 ar  
    21     8    20 ar  
    22     8    21 ar  
    23     9    19 ar  
    24     9    20 ar  
    25     9    29 1   
    26    10    18 ar  
    27    10    19 ar  
    28    10    30 1   
    29    11    17 1   
    30    11    38 2   
    31    12    13 ar  
    32    12    31 1   
    33    13    14 ar  
    34    13    32 1   
    35    14    15 ar  
    36    14    33 1   
    37    15    16 1   
    38    19    34 1   
    39    20    35 1   
    40    21    36 1   
    41    22    37 1   
@<TRIPOS>SUBSTRUCTURE
     1 QC3         1 TEMP              0 ****  ****    0 ROOT
