@<TRIPOS>MOLECULE
QC4
   39    40     1     0     0
SMALL
abcg2


@<TRIPOS>ATOM
      1 N1           8.7780     8.4450     1.7350 n8         1 QC4      -0.981200
      2 CA1          7.5590     8.3330     2.5320 c3         1 QC4       0.146200
      3 CB1          7.8350     8.5220     4.0290 c3         1 QC4       0.180300
      4 CG1          8.4980     7.2820     4.6200 c3         1 QC4      -0.137100
      5 OG1          8.6260     9.6690     4.2280 oh         1 QC4      -0.629000
      6 C1           6.5710     9.3290     1.9970 cc         1 QC4       0.535900
      7 N2           6.3950    10.5210     2.4550 nd         1 QC4      -0.644300
      8 N3           5.8130     9.0390     0.8800 n          1 QC4      -0.313300
      9 C2           5.0190    10.1310     0.6150 c          1 QC4       0.536200
     10 O2           4.1780    10.2200    -0.2550 o          1 QC4      -0.508000
     11 CA2          5.4440    11.1140     1.6440 cd         1 QC4       0.057400
     12 CA3          5.5620     7.7280     0.3340 c3         1 QC4      -0.064000
     13 C3           4.6600     6.8540     1.2460 c          1 QC4       0.708000
     14 O3           4.3560     5.7510     0.7620 o          1 QC4      -0.713500
     15 CB2          4.9510    12.3640     1.7150 ce         1 QC4      -0.129200
     16 CG2          5.2750    13.3900     2.6850 ca         1 QC4      -0.047800
     17 CD1          6.0850    13.1730     3.8110 ca         1 QC4      -0.069000
     18 CD2          4.7480    14.6720     2.5290 ca         1 QC4       0.149000
     19 CE1          6.3250    14.1880     4.6990 ca         1 QC4       0.071000
     20 CE2          5.0080    15.6860     3.4280 ca         1 QC4       0.097000
     21 CZ           5.8060    15.4740     4.5440 ca         1 QC4       0.077100
     22 OH           6.0210    16.4940     5.3740 oh         1 QC4      -0.514100
     23 F1           4.4850    16.8970     3.2310 f          1 QC4      -0.159000
     24 F2           3.9720    14.9580     1.4820 f          1 QC4      -0.159000
     25 F3           7.0880    13.9630     5.7820 f          1 QC4      -0.187000
     26 O1           4.3500     7.3320     2.3500 o          1 QC4      -0.713500
     27 H1           9.4640     7.7860     2.0800 hn         1 QC4       0.393500
     28 H2           8.5920     8.1570     0.7820 hn         1 QC4       0.393500
     29 H4           7.0900     7.3430     2.4560 h1         1 QC4       0.074700
     30 H5           6.8530     8.6330     4.5120 h1         1 QC4       0.057700
     31 H6           8.6410     7.4050     5.6950 hc         1 QC4       0.037033
     32 H7           7.8750     6.3980     4.4730 hc         1 QC4       0.037033
     33 H8           9.4770     7.0850     4.1800 hc         1 QC4       0.037033
     34 H9           8.7530     9.7760     5.1760 ho         1 QC4       0.424000
     35 H10          6.5070     7.2150     0.1440 h1         1 QC4       0.045700
     36 H11          5.0900     7.8570    -0.6400 h1         1 QC4       0.045700
     37 H12          4.2250    12.6210     0.9520 ha         1 QC4       0.200000
     38 H14          6.5280    12.2010     3.9770 ha         1 QC4       0.189000
     39 H3           6.5900    16.2370     6.1110 ho         1 QC4       0.477000
@<TRIPOS>BOND
     1     1     2 1   
     2     1    27 1   
     3     1    28 1   
     4     2     3 1   
     5     2     6 1   
     6     2    29 1   
     7     3     4 1   
     8     3     5 1   
     9     3    30 1   
    10     4    31 1   
    11     4    32 1   
    12     4    33 1   
    13     5    34 1   
    14     6     7 2   
    15     6     8 1   
    16     7    11 1   
    17     8     9 1   
    18     8    12 1   
    19     9    10 2   
    20     9    11 1   
    21    11    15 2   
    22    12    13 1   
    23    12    35 1   
    24    12    36 1   
    25    13    14 1   
    26    13    26 1   
    27    15    16 1   
    28    15    37 1   
    29    16    17 ar  
    30    16    18 ar  
    31    17    19 ar  
    32    17    38 1   
    33    18    20 ar  
    34    18    24 1   
    35    19    21 ar  
    36    19    25 1   
    37    20    21 ar  
    38    20    23 1   
    39    21    22 1   
    40    22    39 1   
@<TRIPOS>SUBSTRUCTURE
     1 QC4         1 TEMP              0 ****  ****    0 ROOT
