@<TRIPOS>MOLECULE
QC4
   39    40     1     0     0
SMALL
No Charge or Current Charge


@<TRIPOS>ATOM
      1 N1           9.1440     9.2670     2.3400 n8         1 QC4      -0.981200
      2 CA1          7.7830     8.6000     2.4420 c3         1 QC4       0.146200
      3 CB1          7.5330     7.9300     3.8410 c3         1 QC4       0.180300
      4 CG1          8.5190     6.7810     4.1480 c3         1 QC4      -0.137100
      5 OG1          7.6140     8.8870     4.9100 oh         1 QC4      -0.629000
      6 C1           6.5840     9.4760     2.0150 cc         1 QC4       0.535900
      7 N2           6.4390    10.7610     2.3830 nd         1 QC4      -0.644300
      8 N3           5.5710     9.0220     1.1750 n          1 QC4      -0.313300
      9 C2           4.6660    10.0310     0.9510 c          1 QC4       0.536200
     10 O2           3.6500    10.0060     0.2660 o          1 QC4      -0.508000
     11 CA2          5.2570    11.1230     1.7470 cd         1 QC4       0.057400
     12 CA3          5.4400     7.6670     0.5650 c3         1 QC4      -0.064000
     13 C3           5.1700     6.5280     1.5710 c          1 QC4       0.708000
     14 O3           4.2020     6.6290     2.3110 o          1 QC4      -0.713500
     15 CB2          4.7210    12.3900     1.8590 ce         1 QC4      -0.129200
     16 CG2          5.1610    13.5670     2.6740 ca         1 QC4      -0.047800
     17 CD1          5.7890    13.3960     3.9270 ca         1 QC4      -0.069000
     18 CD2          4.9250    14.8800     2.2070 ca         1 QC4       0.149000
     19 CE1          6.1850    14.5110     4.6850 ca         1 QC4       0.071000
     20 CE2          5.3230    15.9980     2.9670 ca         1 QC4       0.097000
     21 CZ           5.9580    15.8190     4.2130 ca         1 QC4       0.077100
     22 OH           6.3490    16.9010     4.9640 oh         1 QC4      -0.514100
     23 F1           5.0910    17.2480     2.4960 f          1 QC4      -0.159000
     24 F2           4.3180    15.0710     1.0110 f          1 QC4      -0.159000
     25 F3           6.7840    14.3190     5.8830 f          1 QC4      -0.187000
     26 O1           5.9800     5.6170     1.6370 o          1 QC4      -0.713500
     27 H1           9.8710     8.5910     2.6000 hn         1 QC4       0.393500
     28 H2           9.3470     9.4910     1.3590 hn         1 QC4       0.393500
     29 H4           7.8190     7.7690     1.7260 h1         1 QC4       0.074700
     30 H5           6.5250     7.4930     3.8210 h1         1 QC4       0.057700
     31 H6           8.2510     6.2840     5.0880 hc         1 QC4       0.037033
     32 H7           8.4910     6.0270     3.3520 hc         1 QC4       0.037033
     33 H8           9.5480     7.1490     4.2370 hc         1 QC4       0.037033
     34 H9           7.5540     8.3840     5.7500 ho         1 QC4       0.424000
     35 H10          6.3590     7.4360     0.0120 h1         1 QC4       0.045700
     36 H11          4.6160     7.6650    -0.1590 h1         1 QC4       0.045700
     37 H12          3.8250    12.5570     1.2600 ha         1 QC4       0.200000
     38 H14          5.9650    12.4010     4.3260 ha         1 QC4       0.189000
     39 H3           6.7660    16.5690     5.7890 ho         1 QC4       0.477000
@<TRIPOS>BOND
     1     1     2 1   
     2     1    27 1   
     3     1    28 1   
     4     2     3 1   
     5     2     6 1   
     6     2    29 1   
     7     3     4 1   
     8     3     5 1   
     9     3    30 1   
    10     4    31 1   
    11     4    32 1   
    12     4    33 1   
    13     5    34 1   
    14     6     7 2   
    15     6     8 1   
    16     7    11 1   
    17     8     9 1   
    18     8    12 1   
    19     9    10 2   
    20     9    11 1   
    21    11    15 2   
    22    12    13 1   
    23    12    35 1   
    24    12    36 1   
    25    13    14 1   
    26    13    26 1   
    27    15    16 1   
    28    15    37 1   
    29    16    17 ar  
    30    16    18 ar  
    31    17    19 ar  
    32    17    38 1   
    33    18    20 ar  
    34    18    24 1   
    35    19    21 ar  
    36    19    25 1   
    37    20    21 ar  
    38    20    23 1   
    39    21    22 1   
    40    22    39 1   
@<TRIPOS>SUBSTRUCTURE
     1 QC4         1 TEMP              0 ****  ****    0 ROOT
