@<TRIPOS>MOLECULE
QC5
   41    43     1     0     0
SMALL
abcg2


@<TRIPOS>ATOM
      1 C1           0.1630     0.8510     0.3300 cc         1 QC5       0.353500
      2 C2          -0.3550    -0.4590     0.2710 cc         1 QC5      -0.153000
      3 C3           0.7630    -1.2410     0.4910 cd         1 QC5      -0.146000
      4 N1           1.8010    -0.4140     0.6790 na         1 QC5       0.141800
      5 C4           3.1860    -0.7750     0.8920 c3         1 QC5       0.086600
      6 C5           4.0110    -0.5920    -0.3790 c3         1 QC5       0.145800
      7 N2           5.3960    -0.9530    -0.1630 n3         1 QC5      -0.720600
      8 C6           6.0590    -1.2950    -1.4040 c3         1 QC5       0.150100
      9 C7           6.1310     0.0770     0.5420 c3         1 QC5       0.150100
     10 N3           1.4570     0.8640     0.5680 nd         1 QC5      -0.525800
     11 C8          -1.8570     3.6040    -0.6970 cc         1 QC5      -0.182000
     12 C9          -1.2380     4.1270     0.4720 cc         1 QC5      -0.182000
     13 C10         -0.4250     3.1490     0.9750 cd         1 QC5      -0.175500
     14 N4          -0.5270     2.0530     0.1580 na         1 QC5       0.022500
     15 C11         -1.3980     2.3270    -0.8630 cd         1 QC5      -0.175500
     16 C12         -4.3250    -1.8280    -0.2790 ca         1 QC5       0.170000
     17 C13         -3.2870    -2.5230    -0.8670 ca         1 QC5      -0.152000
     18 C14         -1.9930    -2.0570    -0.6910 ca         1 QC5      -0.074500
     19 C15         -1.7310    -0.9180     0.0720 ca         1 QC5      -0.015000
     20 C16         -2.8080    -0.2480     0.6550 ca         1 QC5      -0.074500
     21 C17         -4.1090    -0.6940     0.4800 ca         1 QC5      -0.152000
     22 H3           0.8690    -2.3120     0.5550 h4         1 QC5       0.162000
     23 H41C         3.5650    -0.1700     1.7160 h1         1 QC5       0.073200
     24 H42C         3.2140    -1.8170     1.2060 h1         1 QC5       0.073200
     25 H51C         3.5940    -1.2470    -1.1470 h1         1 QC5       0.049700
     26 H52C         3.8970     0.4400    -0.7490 h1         1 QC5       0.049700
     27 H61C         6.1010    -0.4620    -2.1220 h1         1 QC5       0.034200
     28 H62C         7.0850    -1.6060    -1.2010 h1         1 QC5       0.034200
     29 H63C         5.5490    -2.1290    -1.8880 h1         1 QC5       0.034200
     30 H71C         5.6580     0.3150     1.4950 h1         1 QC5       0.034200
     31 H72C         7.1400    -0.2740     0.7620 h1         1 QC5       0.034200
     32 H73C         6.2170     1.0140    -0.0300 h1         1 QC5       0.034200
     33 H8          -2.5550     4.1120    -1.3430 ha         1 QC5       0.132000
     34 H9          -1.3790     5.1090     0.8950 ha         1 QC5       0.132000
     35 H11         -1.6060     1.5950    -1.6260 h4         1 QC5       0.151500
     36 H10          0.2080     3.1330     1.8460 h4         1 QC5       0.151500
     37 H13         -3.4810    -3.4080    -1.4590 ha         1 QC5       0.132500
     38 H17         -4.9380    -0.1700     0.9370 ha         1 QC5       0.132500
     39 H14         -1.1770    -2.5850    -1.1680 ha         1 QC5       0.122000
     40 H16         -2.6370     0.6260     1.2700 ha         1 QC5       0.122000
     41 F           -5.5830    -2.2670    -0.4480 f          1 QC5      -0.179000
@<TRIPOS>BOND
     1     1     2 1   
     2     1    10 2   
     3     1    14 1   
     4     2     3 2   
     5     2    19 1   
     6     3     4 1   
     7     3    22 1   
     8     4     5 1   
     9     4    10 1   
    10     5     6 1   
    11     5    23 1   
    12     5    24 1   
    13     6     7 1   
    14     6    25 1   
    15     6    26 1   
    16     7     8 1   
    17     7     9 1   
    18     8    27 1   
    19     8    28 1   
    20     8    29 1   
    21     9    30 1   
    22     9    31 1   
    23     9    32 1   
    24    11    12 1   
    25    11    15 2   
    26    11    33 1   
    27    12    13 2   
    28    12    34 1   
    29    13    14 1   
    30    13    36 1   
    31    14    15 1   
    32    15    35 1   
    33    16    17 ar  
    34    16    21 ar  
    35    16    41 1   
    36    17    18 ar  
    37    17    37 1   
    38    18    19 ar  
    39    18    39 1   
    40    19    20 ar  
    41    20    21 ar  
    42    20    40 1   
    43    21    38 1   
@<TRIPOS>SUBSTRUCTURE
     1 QC5         1 TEMP              0 ****  ****    0 ROOT
