@<TRIPOS>MOLECULE
QC5
   41    43     1     0     0
SMALL
No Charge or Current Charge


@<TRIPOS>ATOM
      1 C1           0.0800     1.0300     0.3780 cc         1 QC5       0.353500
      2 C2          -0.3770    -0.2810     0.1120 cc         1 QC5      -0.153000
      3 C3           0.7220    -1.0760     0.2840 cd         1 QC5      -0.146000
      4 N1           1.7650    -0.1980     0.6140 na         1 QC5       0.141800
      5 C4           3.1590    -0.5740     0.8920 c3         1 QC5       0.086600
      6 C5           4.0220    -0.6350    -0.3890 c3         1 QC5       0.145800
      7 N2           5.4150    -1.1270    -0.1910 n3         1 QC5      -0.720600
      8 C6           6.1030    -1.3820    -1.4770 c3         1 QC5       0.150100
      9 C7           6.2290    -0.2750     0.7100 c3         1 QC5       0.150100
     10 N3           1.3600     1.1290     0.6790 nd         1 QC5      -0.525800
     11 C8          -2.0990     3.7230    -0.4710 cc         1 QC5      -0.182000
     12 C9          -1.2070     4.3560     0.4160 cc         1 QC5      -0.182000
     13 C10         -0.2860     3.4440     0.8540 cd         1 QC5      -0.175500
     14 N4          -0.6440     2.2270     0.2500 na         1 QC5       0.022500
     15 C11         -1.7480     2.4060    -0.5980 cd         1 QC5      -0.175500
     16 C12         -4.2550    -2.0830    -0.3000 ca         1 QC5       0.170000
     17 C13         -3.1260    -2.7160    -0.8390 ca         1 QC5      -0.152000
     18 C14         -1.8580    -2.1220    -0.7030 ca         1 QC5      -0.074500
     19 C15         -1.7100    -0.8830    -0.0390 ca         1 QC5      -0.015000
     20 C16         -2.8560    -0.2710     0.5160 ca         1 QC5      -0.074500
     21 C17         -4.1230    -0.8660     0.3810 ca         1 QC5      -0.152000
     22 H3           0.8470    -2.1520     0.2520 h4         1 QC5       0.162000
     23 H41C         3.5820     0.1540     1.5940 h1         1 QC5       0.073200
     24 H42C         3.1630    -1.5570     1.3770 h1         1 QC5       0.073200
     25 H51C         3.5050    -1.2950    -1.0980 h1         1 QC5       0.049700
     26 H52C         4.0390     0.3660    -0.8430 h1         1 QC5       0.049700
     27 H61C         6.2330    -0.4510    -2.0450 h1         1 QC5       0.034200
     28 H62C         7.0950    -1.8220    -1.3070 h1         1 QC5       0.034200
     29 H63C         5.5270    -2.0840    -2.0950 h1         1 QC5       0.034200
     30 H71C         5.7830    -0.2140     1.7110 h1         1 QC5       0.034200
     31 H72C         7.2400    -0.6890     0.8260 h1         1 QC5       0.034200
     32 H73C         6.3210     0.7440     0.3090 h1         1 QC5       0.034200
     33 H8          -2.9180     4.2210    -0.9840 ha         1 QC5       0.132000
     34 H9          -1.2480     5.4080     0.6870 ha         1 QC5       0.132000
     35 H11         -2.1670     1.6210    -1.2170 h4         1 QC5       0.151500
     36 H10          0.5560     3.5520     1.5280 h4         1 QC5       0.151500
     37 H13         -3.2340    -3.6630    -1.3610 ha         1 QC5       0.132500
     38 H17         -4.9990    -0.3880     0.8120 ha         1 QC5       0.132500
     39 H14         -0.9950    -2.6210    -1.1360 ha         1 QC5       0.122000
     40 H16         -2.7680     0.6520     1.0810 ha         1 QC5       0.122000
     41 F           -5.4730    -2.6550    -0.4280 f          1 QC5      -0.179000
@<TRIPOS>BOND
     1     1     2 1   
     2     1    10 2   
     3     1    14 1   
     4     2     3 2   
     5     2    19 1   
     6     3     4 1   
     7     3    22 1   
     8     4     5 1   
     9     4    10 1   
    10     5     6 1   
    11     5    23 1   
    12     5    24 1   
    13     6     7 1   
    14     6    25 1   
    15     6    26 1   
    16     7     8 1   
    17     7     9 1   
    18     8    27 1   
    19     8    28 1   
    20     8    29 1   
    21     9    30 1   
    22     9    31 1   
    23     9    32 1   
    24    11    12 1   
    25    11    15 2   
    26    11    33 1   
    27    12    13 2   
    28    12    34 1   
    29    13    14 1   
    30    13    36 1   
    31    14    15 1   
    32    15    35 1   
    33    16    17 ar  
    34    16    21 ar  
    35    16    41 1   
    36    17    18 ar  
    37    17    37 1   
    38    18    19 ar  
    39    18    39 1   
    40    19    20 ar  
    41    20    21 ar  
    42    20    40 1   
    43    21    38 1   
@<TRIPOS>SUBSTRUCTURE
     1 QC5         1 TEMP              0 ****  ****    0 ROOT
