@<TRIPOS>MOLECULE
QC6
   22    23     1     0     0
SMALL
No Charge or Current Charge


@<TRIPOS>ATOM
      1 C10         42.8720    18.6200    31.9910 ca         1 QC6      -0.112000
      2 C11         42.6500    18.2280    33.3310 ca         1 QC6       0.362000
      3 C01         39.4460    16.2260    32.8920 c3         1 QC6      -0.149400
      4 C02         40.6740    17.0700    32.6100 ca         1 QC6       0.408300
      5 C04         41.9440    18.1950    31.0030 ca         1 QC6       0.274000
      6 C05         42.1670    18.5890    29.6560 ca         1 QC6       0.184000
      7 C07         43.2730    19.3780    29.3010 ca         1 QC6      -0.142000
      8 C08         44.1810    19.7930    30.2840 ca         1 QC6      -0.100000
      9 C09         43.9840    19.4180    31.6210 ca         1 QC6      -0.100000
     10 C13         41.5400    17.4490    33.6360 ca         1 QC6      -0.266000
     11 F06         41.3090    18.2080    28.6780 f          1 QC6      -0.164000
     12 N03         40.8660    17.4330    31.3280 nb         1 QC6      -0.684000
     13 N12         43.4860    18.5800    34.3590 nv         1 QC6      -1.097000
     14 H012        39.2330    15.5400    32.0630 hc         1 QC6       0.053700
     15 H013        39.5800    15.6200    33.7950 hc         1 QC6       0.053700
     16 H011        38.5660    16.8610    33.0400 hc         1 QC6       0.053700
     17 H071        43.4210    19.6660    28.2630 ha         1 QC6       0.133000
     18 H081        45.0380    20.4060    30.0110 ha         1 QC6       0.118000
     19 H091        44.7040    19.7590    32.3620 ha         1 QC6       0.108000
     20 H131        41.3420    17.1370    34.6560 ha         1 QC6       0.119000
     21 H121        43.3730    18.1320    35.2660 hn         1 QC6       0.473000
     22 H122        44.4010    18.9720    34.1510 hn         1 QC6       0.473000
@<TRIPOS>BOND
     1     1     2 ar  
     2     1     5 ar  
     3     1     9 ar  
     4     2    10 ar  
     5     2    13 1   
     6     3     4 1   
     7     3    14 1   
     8     3    15 1   
     9     3    16 1   
    10     4    10 ar  
    11     4    12 ar  
    12     5     6 ar  
    13     5    12 ar  
    14     6     7 ar  
    15     6    11 1   
    16     7     8 ar  
    17     7    17 1   
    18     8     9 ar  
    19     8    18 1   
    20     9    19 1   
    21    10    20 1   
    22    13    21 1   
    23    13    22 1   
@<TRIPOS>SUBSTRUCTURE
     1 QC6         1 TEMP              0 ****  ****    0 ROOT
