@<TRIPOS>MOLECULE
QC6
   22    23     1     0     0
SMALL
abcg2


@<TRIPOS>ATOM
      1 C10         42.8870    18.6370    32.0030 ca         1 QC6      -0.112000
      2 C11         42.6360    18.2450    33.3620 ca         1 QC6       0.362000
      3 C01         39.4590    16.2360    32.8710 c3         1 QC6      -0.149400
      4 C02         40.6670    17.0760    32.5620 ca         1 QC6       0.408300
      5 C04         41.9660    18.1690    31.0230 ca         1 QC6       0.274000
      6 C05         42.2220    18.5430    29.6820 ca         1 QC6       0.184000
      7 C07         43.2830    19.3190    29.3080 ca         1 QC6      -0.142000
      8 C08         44.1730    19.7780    30.2960 ca         1 QC6      -0.100000
      9 C09         43.9780    19.4450    31.6150 ca         1 QC6      -0.100000
     10 C13         41.5160    17.4700    33.6090 ca         1 QC6      -0.266000
     11 F06         41.3640    18.1040    28.7310 f          1 QC6      -0.164000
     12 N03         40.8770    17.4040    31.2970 nb         1 QC6      -0.684000
     13 N12         43.4470    18.6630    34.3750 nv         1 QC6      -1.097000
     14 H012        38.9250    15.9910    31.9550 hc         1 QC6       0.053700
     15 H013        39.7480    15.3100    33.3740 hc         1 QC6       0.053700
     16 H011        38.7820    16.7700    33.5440 hc         1 QC6       0.053700
     17 H071        43.4210    19.5710    28.2650 ha         1 QC6       0.133000
     18 H081        45.0100    20.3990    30.0080 ha         1 QC6       0.118000
     19 H091        44.6700    19.8210    32.3570 ha         1 QC6       0.108000
     20 H131        41.2960    17.1570    34.6230 ha         1 QC6       0.119000
     21 H121        43.3370    18.2160    35.2710 hn         1 QC6       0.473000
     22 H122        44.3870    18.9570    34.1670 hn         1 QC6       0.473000
@<TRIPOS>BOND
     1     1     2 ar  
     2     1     5 ar  
     3     1     9 ar  
     4     2    10 ar  
     5     2    13 1   
     6     3     4 1   
     7     3    14 1   
     8     3    15 1   
     9     3    16 1   
    10     4    10 ar  
    11     4    12 ar  
    12     5     6 ar  
    13     5    12 ar  
    14     6     7 ar  
    15     6    11 1   
    16     7     8 ar  
    17     7    17 1   
    18     8     9 ar  
    19     8    18 1   
    20     9    19 1   
    21    10    20 1   
    22    13    21 1   
    23    13    22 1   
@<TRIPOS>SUBSTRUCTURE
     1 QC6         1 TEMP              0 ****  ****    0 ROOT
