@<TRIPOS>MOLECULE
QC7
   72    74     1     0     0
SMALL
No Charge or Current Charge


@<TRIPOS>ATOM
      1 C10          3.3170    -1.6430     1.5950 c3         1 QC7      -0.094100
      2 C11          0.5260    -2.0860    -1.9800 c3         1 QC7      -0.087100
      3 C12          0.0560    -1.1500    -0.8130 c6         1 QC7      -0.049700
      4 C13         -1.5120    -1.2420    -0.5960 c6         1 QC7      -0.040700
      5 C14         -2.3150    -0.9520    -1.9170 c6         1 QC7       0.174300
      6 C16         -3.8540    -0.9490    -1.6990 c6         1 QC7      -0.106400
      7 C17         -4.3370    -0.0600    -0.5140 c6         1 QC7      -0.042700
      8 C18         -4.2650     1.4660    -0.8600 c6         1 QC7      -0.074400
      9 C19         -4.7760     2.3510     0.2990 c6         1 QC7       0.173300
     10 C21         -3.9850     2.0460     1.5890 c6         1 QC7      -0.111400
     11 C22         -4.1040     0.5450     1.9430 c6         1 QC7      -0.065400
     12 C23         -3.5820    -0.4250     0.8190 c6         1 QC7      -0.033000
     13 C24         -3.9930    -1.8710     1.2810 c3         1 QC7      -0.087100
     14 C25         -2.0090    -0.3150     0.5780 c6         1 QC7      -0.044700
     15 C01          2.2340     1.2900    -0.8890 c3         1 QC7      -0.089100
     16 C02          3.0760     0.3680     0.0340 c3         1 QC7      -0.054700
     17 C03          4.5270     0.3080    -0.5670 c3         1 QC7      -0.070400
     18 C04          5.3770     1.5910    -0.3580 c3         1 QC7      -0.183400
     19 C05          6.8220     1.3870    -0.8360 c          1 QC7       0.570100
     20 C07          7.8430     0.9760     0.2230 c3         1 QC7      -0.202100
     21 C09          2.5110    -1.0910     0.3590 c3         1 QC7      -0.042700
     22 C26         -1.1770    -0.5790     1.8680 c6         1 QC7      -0.072400
     23 C27          0.3380    -0.4070     1.6340 c6         1 QC7      -0.071400
     24 C28          0.9130    -1.3470     0.5230 c6         1 QC7      -0.022000
     25 C29          0.7400    -2.8460     0.9940 c3         1 QC7      -0.085100
     26 O06          7.1360     1.5220    -2.0120 o          1 QC7      -0.522100
     27 O15         -1.8960     0.2580    -2.5630 oh         1 QC7      -0.660000
     28 O20         -4.6430     3.7330    -0.0410 oh         1 QC7      -0.660000
     29 H102         4.3740    -1.3650     1.5930 hc         1 QC7       0.031700
     30 H1           2.9150    -1.2700     2.5420 hc         1 QC7       0.031700
     31 H101         3.3040    -2.7380     1.6250 hc         1 QC7       0.031700
     32 H112         0.0400    -1.8300    -2.9270 hc         1 QC7       0.031033
     33 H111         1.5980    -2.0010    -2.1810 hc         1 QC7       0.031033
     34 H2           0.3020    -3.1390    -1.7750 hc         1 QC7       0.031033
     35 H121         0.2080    -0.1450    -1.1930 hc         1 QC7       0.070700
     36 H131        -1.7400    -2.2800    -0.3370 hc         1 QC7       0.045700
     37 H141        -2.1220    -1.7860    -2.6060 h1         1 QC7       0.026700
     38 H161        -4.3600    -0.6420    -2.6250 hc         1 QC7       0.042700
     39 H162        -4.1830    -1.9830    -1.5340 hc         1 QC7       0.042700
     40 H171        -5.4030    -0.2860    -0.3670 hc         1 QC7       0.040700
     41 H182        -3.2430     1.7760    -1.1000 hc         1 QC7       0.058700
     42 H181        -4.8640     1.6670    -1.7580 hc         1 QC7       0.058700
     43 H191        -5.8370     2.1150     0.4740 h1         1 QC7       0.022700
     44 H211        -2.9310     2.3320     1.4740 hc         1 QC7       0.046200
     45 H212        -4.3820     2.6460     2.4190 hc         1 QC7       0.046200
     46 H221        -3.6100     0.3490     2.9030 hc         1 QC7       0.039700
     47 H222        -5.1650     0.3310     2.1340 hc         1 QC7       0.039700
     48 H243        -3.6720    -2.6600     0.5950 hc         1 QC7       0.032700
     49 H241        -3.5850    -2.1150     2.2680 hc         1 QC7       0.032700
     50 H242        -5.0830    -1.9610     1.3660 hc         1 QC7       0.032700
     51 H251        -1.7800     0.7130     0.2710 hc         1 QC7       0.062700
     52 H013         2.0770     0.8290    -1.8710 hc         1 QC7       0.036033
     53 H012         1.2700     1.5500    -0.4430 hc         1 QC7       0.036033
     54 H011         2.7360     2.2480    -1.0580 hc         1 QC7       0.036033
     55 H021         3.1400     0.8910     0.9970 hc         1 QC7       0.038700
     56 H031         5.0970    -0.5350    -0.1680 hc         1 QC7       0.052700
     57 H032         4.4560     0.1020    -1.6440 hc         1 QC7       0.052700
     58 H042         4.9400     2.4260    -0.9150 hc         1 QC7       0.058200
     59 H041         5.3850     1.8090     0.7170 hc         1 QC7       0.058200
     60 H071         7.8730     1.7460     1.0020 hc         1 QC7       0.059367
     61 H3           7.4620     0.1070     0.7710 hc         1 QC7       0.059367
     62 H072         8.8380     0.7910    -0.1970 hc         1 QC7       0.059367
     63 H091         2.8500    -1.7160    -0.4730 hc         1 QC7       0.048700
     64 H261        -1.4610     0.1280     2.6570 hc         1 QC7       0.037700
     65 H262        -1.3790    -1.5790     2.2700 hc         1 QC7       0.037700
     66 H271         0.5340     0.6440     1.3950 hc         1 QC7       0.040200
     67 H272         0.8430    -0.5830     2.5910 hc         1 QC7       0.040200
     68 H293         1.3220    -3.5360     0.3720 hc         1 QC7       0.031367
     69 H292         1.0580    -2.9910     2.0320 hc         1 QC7       0.031367
     70 H291        -0.2950    -3.1960     0.9620 hc         1 QC7       0.031367
     71 H151        -2.4100     0.3220    -3.3950 ho         1 QC7       0.439000
     72 H201        -5.0080     4.2430     0.7150 ho         1 QC7       0.440000
@<TRIPOS>BOND
     1     1    21 1   
     2     1    29 1   
     3     1    30 1   
     4     1    31 1   
     5     2     3 1   
     6     2    32 1   
     7     2    33 1   
     8     2    34 1   
     9     3     4 1   
    10     3    24 1   
    11     3    35 1   
    12     4     5 1   
    13     4    14 1   
    14     4    36 1   
    15     5     6 1   
    16     5    27 1   
    17     5    37 1   
    18     6     7 1   
    19     6    38 1   
    20     6    39 1   
    21     7     8 1   
    22     7    12 1   
    23     7    40 1   
    24     8     9 1   
    25     8    41 1   
    26     8    42 1   
    27     9    10 1   
    28     9    28 1   
    29     9    43 1   
    30    10    11 1   
    31    10    44 1   
    32    10    45 1   
    33    11    12 1   
    34    11    46 1   
    35    11    47 1   
    36    12    13 1   
    37    12    14 1   
    38    13    48 1   
    39    13    49 1   
    40    13    50 1   
    41    14    22 1   
    42    14    51 1   
    43    15    16 1   
    44    15    52 1   
    45    15    53 1   
    46    15    54 1   
    47    16    17 1   
    48    16    21 1   
    49    16    55 1   
    50    17    18 1   
    51    17    56 1   
    52    17    57 1   
    53    18    19 1   
    54    18    58 1   
    55    18    59 1   
    56    19    20 1   
    57    19    26 2   
    58    20    60 1   
    59    20    61 1   
    60    20    62 1   
    61    21    24 1   
    62    21    63 1   
    63    22    23 1   
    64    22    64 1   
    65    22    65 1   
    66    23    24 1   
    67    23    66 1   
    68    23    67 1   
    69    24    25 1   
    70    25    68 1   
    71    25    69 1   
    72    25    70 1   
    73    27    71 1   
    74    28    72 1   
@<TRIPOS>SUBSTRUCTURE
     1 QC7         1 TEMP              0 ****  ****    0 ROOT
