@<TRIPOS>MOLECULE
QC7
   72    74     1     0     0
SMALL
bcc


@<TRIPOS>ATOM
      1 C10          3.1530    -1.9380     1.4280 c3         1 QC7      -0.094100
      2 C11          0.3690    -2.2420    -1.9520 c3         1 QC7      -0.087100
      3 C12          0.0240    -1.2420    -0.8460 c6         1 QC7      -0.049700
      4 C13         -1.5070    -1.2360    -0.6030 c6         1 QC7      -0.040700
      5 C14         -2.2730    -0.9210    -1.8950 c6         1 QC7       0.151100
      6 C16         -3.7810    -0.8470    -1.6650 c6         1 QC7      -0.106400
      7 C17         -4.2170     0.0340    -0.4950 c6         1 QC7      -0.042700
      8 C18         -4.1030     1.5290    -0.8180 c6         1 QC7      -0.074400
      9 C19         -4.5460     2.4040     0.3410 c6         1 QC7       0.150100
     10 C21         -3.7450     2.0660     1.5900 c6         1 QC7      -0.111400
     11 C22         -3.9170     0.5900     1.9190 c6         1 QC7      -0.065400
     12 C23         -3.4710    -0.3650     0.7960 c6         1 QC7      -0.033000
     13 C24         -3.9110    -1.7710     1.2280 c3         1 QC7      -0.087100
     14 C25         -1.9410    -0.3010     0.5420 c6         1 QC7      -0.044700
     15 C01          2.2130     1.0730    -0.8910 c3         1 QC7      -0.089100
     16 C02          2.9670     0.1190     0.0370 c3         1 QC7      -0.054700
     17 C03          4.4150     0.0350    -0.4940 c3         1 QC7      -0.070400
     18 C04          5.2730     1.2060    -0.0420 c3         1 QC7      -0.183400
     19 C05          6.6950     1.1930    -0.5370 c          1 QC7       0.570100
     20 C07          7.6250     2.1640     0.1380 c3         1 QC7      -0.202100
     21 C09          2.3940    -1.3120     0.2450 c3         1 QC7      -0.042700
     22 C26         -1.1200    -0.5630     1.8020 c6         1 QC7      -0.072400
     23 C27          0.3720    -0.4920     1.5280 c6         1 QC7      -0.071400
     24 C28          0.8470    -1.4810     0.4560 c6         1 QC7      -0.022000
     25 C29          0.5710    -2.9180     0.9370 c3         1 QC7      -0.085100
     26 O06          7.0730     0.4410    -1.4090 o          1 QC7      -0.522100
     27 O15         -1.7500     0.2720    -2.4530 oh         1 QC7      -0.597800
     28 O20         -4.4000     3.7560    -0.0520 oh         1 QC7      -0.597800
     29 H102         4.2190    -1.7190     1.3940 hc         1 QC7       0.031700
     30 H1           2.7850    -1.5600     2.3840 hc         1 QC7       0.031700
     31 H101         3.0650    -3.0220     1.4460 hc         1 QC7       0.031700
     32 H112        -0.0110    -1.9120    -2.9180 hc         1 QC7       0.031033
     33 H111         1.4440    -2.3690    -2.0740 hc         1 QC7       0.031033
     34 H2          -0.0550    -3.2290    -1.7520 hc         1 QC7       0.031033
     35 H121         0.2710    -0.2510    -1.2180 hc         1 QC7       0.070700
     36 H131        -1.8030    -2.2590    -0.3430 hc         1 QC7       0.045700
     37 H141        -2.1090    -1.7520    -2.5960 h1         1 QC7       0.026700
     38 H161        -4.2740    -0.5170    -2.5880 hc         1 QC7       0.042700
     39 H162        -4.1380    -1.8680    -1.5030 hc         1 QC7       0.042700
     40 H171        -5.2840    -0.1650    -0.3180 hc         1 QC7       0.040700
     41 H182        -3.0810     1.7960    -1.0900 hc         1 QC7       0.058700
     42 H181        -4.7230     1.7440    -1.6950 hc         1 QC7       0.058700
     43 H191        -5.6050     2.1840     0.5560 h1         1 QC7       0.022700
     44 H211        -2.6910     2.3170     1.4330 hc         1 QC7       0.046200
     45 H212        -4.0890     2.6720     2.4350 hc         1 QC7       0.046200
     46 H221        -3.4150     0.3400     2.8560 hc         1 QC7       0.039700
     47 H222        -4.9830     0.4050     2.1010 hc         1 QC7       0.039700
     48 H243        -3.6900    -2.5440     0.4930 hc         1 QC7       0.032700
     49 H241        -3.4340    -2.0690     2.1630 hc         1 QC7       0.032700
     50 H242        -4.9900    -1.7890     1.3980 hc         1 QC7       0.032700
     51 H251        -1.6980     0.7200     0.2240 hc         1 QC7       0.062700
     52 H013         2.0660     0.6370    -1.8810 hc         1 QC7       0.036033
     53 H012         1.2430     1.3770    -0.5060 hc         1 QC7       0.036033
     54 H011         2.7930     1.9880    -1.0300 hc         1 QC7       0.036033
     55 H021         3.0000     0.5930     1.0270 hc         1 QC7       0.038700
     56 H031         4.9020    -0.8870    -0.1760 hc         1 QC7       0.052700
     57 H032         4.3870    -0.0100    -1.5860 hc         1 QC7       0.052700
     58 H042         4.8460     2.1660    -0.3610 hc         1 QC7       0.058200
     59 H041         5.2930     1.2680     1.0520 hc         1 QC7       0.058200
     60 H071         7.1340     3.1190     0.3290 hc         1 QC7       0.059367
     61 H3           7.9050     1.7560     1.1130 hc         1 QC7       0.059367
     62 H072         8.5310     2.3260    -0.4410 hc         1 QC7       0.059367
     63 H091         2.6680    -1.8870    -0.6470 hc         1 QC7       0.048700
     64 H261        -1.3590     0.1840     2.5630 hc         1 QC7       0.037700
     65 H262        -1.3770    -1.5350     2.2340 hc         1 QC7       0.037700
     66 H271         0.6120     0.5300     1.2220 hc         1 QC7       0.040200
     67 H272         0.9150    -0.6660     2.4610 hc         1 QC7       0.040200
     68 H293         1.0860    -3.6560     0.3180 hc         1 QC7       0.031367
     69 H292         0.8910    -3.0760     1.9670 hc         1 QC7       0.031367
     70 H291        -0.4910    -3.1590     0.9020 hc         1 QC7       0.031367
     71 H151        -2.3070     0.5240    -3.1960 ho         1 QC7       0.400000
     72 H201        -4.6790     4.3130     0.6810 ho         1 QC7       0.401000
@<TRIPOS>BOND
     1     1    21 1   
     2     1    29 1   
     3     1    30 1   
     4     1    31 1   
     5     2     3 1   
     6     2    32 1   
     7     2    33 1   
     8     2    34 1   
     9     3     4 1   
    10     3    24 1   
    11     3    35 1   
    12     4     5 1   
    13     4    14 1   
    14     4    36 1   
    15     5     6 1   
    16     5    27 1   
    17     5    37 1   
    18     6     7 1   
    19     6    38 1   
    20     6    39 1   
    21     7     8 1   
    22     7    12 1   
    23     7    40 1   
    24     8     9 1   
    25     8    41 1   
    26     8    42 1   
    27     9    10 1   
    28     9    28 1   
    29     9    43 1   
    30    10    11 1   
    31    10    44 1   
    32    10    45 1   
    33    11    12 1   
    34    11    46 1   
    35    11    47 1   
    36    12    13 1   
    37    12    14 1   
    38    13    48 1   
    39    13    49 1   
    40    13    50 1   
    41    14    22 1   
    42    14    51 1   
    43    15    16 1   
    44    15    52 1   
    45    15    53 1   
    46    15    54 1   
    47    16    17 1   
    48    16    21 1   
    49    16    55 1   
    50    17    18 1   
    51    17    56 1   
    52    17    57 1   
    53    18    19 1   
    54    18    58 1   
    55    18    59 1   
    56    19    20 1   
    57    19    26 2   
    58    20    60 1   
    59    20    61 1   
    60    20    62 1   
    61    21    24 1   
    62    21    63 1   
    63    22    23 1   
    64    22    64 1   
    65    22    65 1   
    66    23    24 1   
    67    23    66 1   
    68    23    67 1   
    69    24    25 1   
    70    25    68 1   
    71    25    69 1   
    72    25    70 1   
    73    27    71 1   
    74    28    72 1   
@<TRIPOS>SUBSTRUCTURE
     1 QC7         1 TEMP              0 ****  ****    0 ROOT
