@<TRIPOS>MOLECULE
QC8
   53    57     1     0     0
SMALL
No Charge or Current Charge


@<TRIPOS>ATOM
      1 C10         40.3870    19.2090    10.3650 c5         1 QC8       0.019900
      2 C17         41.0980    17.5790     8.7900 ca         1 QC8       0.169100
      3 C20         39.1130    16.8660    13.1580 ca         1 QC8      -0.108500
      4 C21         38.8810    17.7780    14.2000 ca         1 QC8      -0.100000
      5 C22         39.1360    19.1440    14.0000 ca         1 QC8      -0.108500
      6 C24         45.2080    17.5430    10.1270 c          1 QC8       0.621700
      7 C01         39.6910    15.0010     5.5410 c3         1 QC8       0.096300
      8 C03         41.5770    15.7750     7.0160 c          1 QC8       0.620700
      9 O04         42.3720    15.0160     6.4780 o          1 QC8      -0.620100
     10 C05         41.9880    16.6980     8.1420 ca         1 QC8      -0.186600
     11 C06         43.3360    16.6920     8.5810 ca         1 QC8      -0.004000
     12 C07         43.7760    17.5350     9.6390 ca         1 QC8      -0.198600
     13 C08         42.8420    18.3920    10.2610 ca         1 QC8       0.024000
     14 C09         41.5150    18.3940     9.8160 ca         1 QC8      -0.195300
     15 C12         39.3010    18.8820     9.2630 c5         1 QC8       0.129300
     16 C14         39.0840    20.0460     8.2650 c3         1 QC8       0.169600
     17 F15         38.1460    19.7440     7.3320 f          1 QC8      -0.256000
     18 O16         39.7610    17.7000     8.5170 os         1 QC8      -0.335100
     19 C18         39.8560    18.6920    11.7060 ca         1 QC8      -0.090300
     20 C19         39.5990    17.3190    11.9190 ca         1 QC8      -0.097000
     21 C23         39.6210    19.5970    12.7610 ca         1 QC8      -0.097000
     22 O25         45.5750    18.2660    11.0430 o          1 QC8      -0.596100
     23 N26         46.0900    16.6950     9.4930 ns         1 QC8      -0.484900
     24 C27         47.4800    16.5710     9.8340 cx         1 QC8       0.081700
     25 C29         47.8870    15.3670    10.6540 cx         1 QC8      -0.167700
     26 C31         49.2020    15.5290    11.4290 c5         1 QC8       0.175600
     27 O32         50.1310    16.1050    10.4790 os         1 QC8      -0.458000
     28 C33         49.7740    15.6320     9.1570 c5         1 QC8       0.175600
     29 C34         48.2520    15.4350     9.2000 cx         1 QC8      -0.167700
     30 H1          40.6310    20.2780    10.3980 hc         1 QC8       0.077700
     31 H3          38.5050    17.4270    15.1590 ha         1 QC8       0.116000
     32 H4          38.9570    19.8530    14.8060 ha         1 QC8       0.117000
     33 H5          38.6260    15.2400     5.4300 h1         1 QC8       0.040700
     34 H6          40.2100    15.2110     4.5970 h1         1 QC8       0.040700
     35 H7          39.8000    13.9370     5.7900 h1         1 QC8       0.040700
     36 H8          39.6680    16.4710     7.1080 hn         1 QC8       0.337500
     37 H9          44.0350    16.0210     8.0900 ha         1 QC8       0.142000
     38 H10         43.1370    19.0450    11.0810 ha         1 QC8       0.146000
     39 H11         38.3260    18.6560     9.7150 h1         1 QC8       0.100700
     40 H12         40.0270    20.2770     7.7540 h1         1 QC8       0.057700
     41 H13         38.7540    20.9390     8.8100 h1         1 QC8       0.057700
     42 H14         39.7750    16.5980    11.1250 ha         1 QC8       0.115500
     43 H15         39.8140    20.6590    12.6230 ha         1 QC8       0.115500
     44 H16         45.7200    16.1320     8.7410 hn         1 QC8       0.325500
     45 H17         47.9910    17.5220    10.0040 h1         1 QC8       0.106700
     46 H18         47.1230    14.6670    10.9830 hc         1 QC8       0.103700
     47 H19         49.5980    14.5620    11.7670 h1         1 QC8       0.055450
     48 H20         49.1160    16.1880    12.3030 h1         1 QC8       0.055450
     49 H21         50.3030    14.6880     8.9660 h1         1 QC8       0.055450
     50 H22         50.1000    16.3640     8.4050 h1         1 QC8       0.055450
     51 H23         47.7520    14.7770     8.4930 hc         1 QC8       0.103700
     52 H2          38.9190    15.8070    13.3100 ha         1 QC8       0.117000
     53 N02         40.2650    15.8170     6.6120 ns         1 QC8      -0.494900
@<TRIPOS>BOND
     1     1    14 1   
     2     1    15 1   
     3     1    19 1   
     4     1    30 1   
     5     2    10 ar  
     6     2    14 ar  
     7     2    18 1   
     8     3     4 ar  
     9     3    20 ar  
    10     3    52 1   
    11     4     5 ar  
    12     4    31 1   
    13     5    21 ar  
    14     5    32 1   
    15     6    12 1   
    16     6    22 2   
    17     6    23 1   
    18     7    33 1   
    19     7    34 1   
    20     7    35 1   
    21     7    53 1   
    22     8     9 2   
    23     8    10 1   
    24     8    53 1   
    25    10    11 ar  
    26    11    12 ar  
    27    11    37 1   
    28    12    13 ar  
    29    13    14 ar  
    30    13    38 1   
    31    15    16 1   
    32    15    18 1   
    33    15    39 1   
    34    16    17 1   
    35    16    40 1   
    36    16    41 1   
    37    19    20 ar  
    38    19    21 ar  
    39    20    42 1   
    40    21    43 1   
    41    23    24 1   
    42    23    44 1   
    43    24    25 1   
    44    24    29 1   
    45    24    45 1   
    46    25    26 1   
    47    25    29 1   
    48    25    46 1   
    49    26    27 1   
    50    26    47 1   
    51    26    48 1   
    52    27    28 1   
    53    28    29 1   
    54    28    49 1   
    55    28    50 1   
    56    29    51 1   
    57    36    53 1   
@<TRIPOS>SUBSTRUCTURE
     1 QC8         1 TEMP              0 ****  ****    0 ROOT
