@<TRIPOS>MOLECULE
QC8
   53    57     1     0     0
SMALL
abcg2


@<TRIPOS>ATOM
      1 C10         40.3340    18.9890    10.3830 c5         1 QC8       0.019900
      2 C17         41.0620    17.5940     8.6300 ca         1 QC8       0.169100
      3 C20         39.6970    16.6490    13.3100 ca         1 QC8      -0.108500
      4 C21         39.5510    17.5470    14.3610 ca         1 QC8      -0.100000
      5 C22         39.6600    18.9090    14.1180 ca         1 QC8      -0.108500
      6 C24         45.1710    17.5610     9.7210 c          1 QC8       0.621700
      7 C01         39.8280    15.4600     5.0050 c3         1 QC8       0.096300
      8 C03         41.5440    16.0630     6.6140 c          1 QC8       0.620700
      9 O04         42.3760    15.3650     6.0460 o          1 QC8      -0.620100
     10 C05         41.9230    16.8470     7.8320 ca         1 QC8      -0.186600
     11 C06         43.2660    16.8460     8.2140 ca         1 QC8      -0.004000
     12 C07         43.7340    17.5510     9.3150 ca         1 QC8      -0.198600
     13 C08         42.8380    18.3130    10.0730 ca         1 QC8       0.024000
     14 C09         41.5100    18.3190     9.7250 ca         1 QC8      -0.195300
     15 C12         39.2090    18.6780     9.3640 c5         1 QC8       0.129300
     16 C14         38.8280    19.9140     8.5880 c3         1 QC8       0.169600
     17 F15         37.8620    19.6020     7.6440 f          1 QC8      -0.256000
     18 O16         39.7350    17.6900     8.4560 os         1 QC8      -0.335100
     19 C18         40.0630    18.4770    11.7760 ca         1 QC8      -0.090300
     20 C19         39.9540    17.1100    12.0280 ca         1 QC8      -0.097000
     21 C23         39.9140    19.3690    12.8310 ca         1 QC8      -0.097000
     22 O25         45.6340    18.4820    10.3790 o          1 QC8      -0.596100
     23 N26         45.9100    16.5010     9.3430 ns         1 QC8      -0.484900
     24 C27         47.3010    16.4050     9.6350 cx         1 QC8       0.081700
     25 C29         47.7080    16.1040    11.0450 cx         1 QC8      -0.167700
     26 C31         49.1280    16.4580    11.4090 c5         1 QC8       0.175600
     27 O32         49.9290    15.9590    10.3500 os         1 QC8      -0.458000
     28 C33         49.2920    14.8250     9.7860 c5         1 QC8       0.175600
     29 C34         47.8150    15.0460     9.9920 cx         1 QC8      -0.167700
     30 H1          40.4960    20.0700    10.4410 hc         1 QC8       0.077700
     31 H3          39.3530    17.1860    15.3610 ha         1 QC8       0.116000
     32 H4          39.5490    19.6170    14.9290 ha         1 QC8       0.117000
     33 H5          38.7610    15.6360     4.8950 h1         1 QC8       0.040700
     34 H6          40.3290    15.8100     4.1010 h1         1 QC8       0.040700
     35 H7          39.9920    14.3870     5.0920 h1         1 QC8       0.040700
     36 H8          39.6360    16.7790     6.6450 hn         1 QC8       0.337500
     37 H9          43.9480    16.2820     7.5910 ha         1 QC8       0.142000
     38 H10         43.1860    18.8720    10.9320 ha         1 QC8       0.146000
     39 H11         38.3270    18.2420     9.8370 h1         1 QC8       0.100700
     40 H12         39.6940    20.3400     8.0750 h1         1 QC8       0.057700
     41 H13         38.4210    20.6600     9.2740 h1         1 QC8       0.057700
     42 H14         40.0710    16.3950    11.2220 ha         1 QC8       0.115500
     43 H15         39.9980    20.4330    12.6480 ha         1 QC8       0.115500
     44 H16         45.4800    15.7440     8.8390 hn         1 QC8       0.325500
     45 H17         47.9410    17.0580     9.0450 h1         1 QC8       0.106700
     46 H18         46.9530    16.0680    11.8190 hc         1 QC8       0.103700
     47 H19         49.3880    15.9950    12.3690 h1         1 QC8       0.055450
     48 H20         49.3090    17.5320    11.4900 h1         1 QC8       0.055450
     49 H21         49.5950    13.8960    10.2870 h1         1 QC8       0.055450
     50 H22         49.5900    14.7570     8.7380 h1         1 QC8       0.055450
     51 H23         47.1430    14.1960     9.9630 hc         1 QC8       0.103700
     52 H2          39.6140    15.5850    13.4910 ha         1 QC8       0.117000
     53 N02         40.2830    16.1640     6.1810 ns         1 QC8      -0.494900
@<TRIPOS>BOND
     1     1    14 1   
     2     1    15 1   
     3     1    19 1   
     4     1    30 1   
     5     2    10 ar  
     6     2    14 ar  
     7     2    18 1   
     8     3     4 ar  
     9     3    20 ar  
    10     3    52 1   
    11     4     5 ar  
    12     4    31 1   
    13     5    21 ar  
    14     5    32 1   
    15     6    12 1   
    16     6    22 2   
    17     6    23 1   
    18     7    33 1   
    19     7    34 1   
    20     7    35 1   
    21     7    53 1   
    22     8     9 2   
    23     8    10 1   
    24     8    53 1   
    25    10    11 ar  
    26    11    12 ar  
    27    11    37 1   
    28    12    13 ar  
    29    13    14 ar  
    30    13    38 1   
    31    15    16 1   
    32    15    18 1   
    33    15    39 1   
    34    16    17 1   
    35    16    40 1   
    36    16    41 1   
    37    19    20 ar  
    38    19    21 ar  
    39    20    42 1   
    40    21    43 1   
    41    23    24 1   
    42    23    44 1   
    43    24    25 1   
    44    24    29 1   
    45    24    45 1   
    46    25    26 1   
    47    25    29 1   
    48    25    46 1   
    49    26    27 1   
    50    26    47 1   
    51    26    48 1   
    52    27    28 1   
    53    28    29 1   
    54    28    49 1   
    55    28    50 1   
    56    29    51 1   
    57    36    53 1   
@<TRIPOS>SUBSTRUCTURE
     1 QC8         1 TEMP              0 ****  ****    0 ROOT
