@<TRIPOS>MOLECULE
QC9
   27    26     1     0     0
SMALL
No Charge or Current Charge


@<TRIPOS>ATOM
      1 C1         152.2820   185.7880   138.8510 c3         1 QC9       0.183300
      2 C12        153.9510   184.1170   141.2120 c3         1 QC9      -0.399400
      3 C2         151.8910   185.6200   140.3740 c3         1 QC9       0.161300
      4 C3         152.4280   184.3740   141.1940 c3         1 QC9       0.198300
      5 C4         151.9740   184.6060   137.8860 c3         1 QC9      -0.064400
      6 C5         153.0800   183.5340   137.7250 c3         1 QC9       0.164600
      7 O1         153.6410   186.2360   138.6870 oh         1 QC9      -0.722000
      8 O14        154.5190   186.4600   142.0940 o          1 QC9      -0.696533
      9 O15        156.2460   184.6940   142.2220 o          1 QC9      -0.696533
     10 O2         154.2790   184.6130   143.7180 o          1 QC9      -0.696533
     11 O6         152.1900   186.8580   141.0580 oh         1 QC9      -0.722000
     12 O7         151.8190   183.1700   140.7200 oh         1 QC9      -0.734000
     13 O8         152.6570   182.5410   136.7760 oh         1 QC9      -0.693000
     14 H1         151.6260   186.5980   138.5020 h1         1 QC9       0.034700
     15 H20        154.1700   183.0750   141.4620 h1         1 QC9       0.083200
     16 H19        154.4090   184.3530   140.2490 h1         1 QC9       0.083200
     17 H23        150.7980   185.5090   140.3730 h1         1 QC9       0.028700
     18 H24        152.0980   184.5190   142.2330 h1         1 QC9       0.036700
     19 H3         151.7810   185.0320   136.8940 hc         1 QC9       0.043700
     20 H4         151.0380   184.1270   138.1950 hc         1 QC9       0.043700
     21 H11        153.3000   183.0630   138.6890 h1         1 QC9       0.042200
     22 H12        154.0040   184.0140   137.3750 h1         1 QC9       0.042200
     23 H2         153.7380   187.0120   139.2850 ho         1 QC9       0.503000
     24 H9         153.0930   186.7430   141.4840 ho         1 QC9       0.512000
     25 H8         152.0620   182.4610   141.3570 ho         1 QC9       0.500000
     26 H10        153.3760   181.8740   136.7220 ho         1 QC9       0.429000
     27 S13        154.8440   185.0710   142.4430 s6         1 QC9       1.336600
@<TRIPOS>BOND
     1     1     3 1   
     2     1     5 1   
     3     1     7 1   
     4     1    14 1   
     5     2     4 1   
     6     2    15 1   
     7     2    16 1   
     8     2    27 1   
     9     3     4 1   
    10     3    11 1   
    11     3    17 1   
    12     4    12 1   
    13     4    18 1   
    14     5     6 1   
    15     5    19 1   
    16     5    20 1   
    17     6    13 1   
    18     6    21 1   
    19     6    22 1   
    20     7    23 1   
    21     8    27 1   
    22     9    27 1   
    23    10    27 1   
    24    11    24 1   
    25    12    25 1   
    26    13    26 1   
@<TRIPOS>SUBSTRUCTURE
     1 QC9         1 TEMP              0 ****  ****    0 ROOT
