@<TRIPOS>MOLECULE
QC9
   27    26     1     0     0
SMALL
abcg2


@<TRIPOS>ATOM
      1 C1         152.6970   185.5220   138.6850 c3         1 QC9       0.183300
      2 C12        154.4490   184.9150   141.4960 c3         1 QC9      -0.399400
      3 C2         152.2670   185.3000   140.1550 c3         1 QC9       0.161300
      4 C3         153.0990   184.3410   141.0260 c3         1 QC9       0.198300
      5 C4         151.9180   184.7290   137.6370 c3         1 QC9      -0.064400
      6 C5         152.1260   183.2280   137.5830 c3         1 QC9       0.164600
      7 O1         154.0990   185.3390   138.4490 oh         1 QC9      -0.722000
      8 O14        153.3020   186.3810   143.3300 o          1 QC9      -0.696533
      9 O15        155.7200   186.0150   143.5000 o          1 QC9      -0.696533
     10 O2         154.1560   184.1920   144.0030 o          1 QC9      -0.696533
     11 O6         152.2380   186.5940   140.7680 oh         1 QC9      -0.722000
     12 O7         153.2590   183.1080   140.3310 oh         1 QC9      -0.734000
     13 O8         151.4490   182.7540   136.4050 oh         1 QC9      -0.693000
     14 H1         152.4500   186.5710   138.5000 h1         1 QC9       0.034700
     15 H20        155.2230   184.1540   141.4110 h1         1 QC9       0.083200
     16 H19        154.7620   185.7930   140.9370 h1         1 QC9       0.083200
     17 H23        151.2490   184.8940   140.1340 h1         1 QC9       0.028700
     18 H24        152.4910   184.1550   141.9160 h1         1 QC9       0.036700
     19 H3         152.1910   185.1380   136.6600 hc         1 QC9       0.043700
     20 H4         150.8540   184.9360   137.7820 hc         1 QC9       0.043700
     21 H11        151.7230   182.7430   138.4720 h1         1 QC9       0.042200
     22 H12        153.1920   182.9900   137.5250 h1         1 QC9       0.042200
     23 H2         154.5650   186.1240   138.7580 ho         1 QC9       0.503000
     24 H9         152.4460   186.5240   141.7220 ho         1 QC9       0.512000
     25 H8         153.4280   182.4190   140.9850 ho         1 QC9       0.500000
     26 H10        151.5290   181.7930   136.3830 ho         1 QC9       0.429000
     27 S13        154.4140   185.4090   143.2250 s6         1 QC9       1.336600
@<TRIPOS>BOND
     1     1     3 1   
     2     1     5 1   
     3     1     7 1   
     4     1    14 1   
     5     2     4 1   
     6     2    15 1   
     7     2    16 1   
     8     2    27 1   
     9     3     4 1   
    10     3    11 1   
    11     3    17 1   
    12     4    12 1   
    13     4    18 1   
    14     5     6 1   
    15     5    19 1   
    16     5    20 1   
    17     6    13 1   
    18     6    21 1   
    19     6    22 1   
    20     7    23 1   
    21     8    27 1   
    22     9    27 1   
    23    10    27 1   
    24    11    24 1   
    25    12    25 1   
    26    13    26 1   
@<TRIPOS>SUBSTRUCTURE
     1 QC9         1 TEMP              0 ****  ****    0 ROOT
