@<TRIPOS>MOLECULE
QCA
   41    42     1     0     0
SMALL
bcc


@<TRIPOS>ATOM
      1 N1           8.8070     6.4040     2.1330 n8         1 QCA      -0.870800
      2 CA1          7.5530     6.3420     2.8800 c3         1 QCA       0.145200
      3 CB1          7.7770     6.5440     4.3830 c3         1 QCA       0.159100
      4 CG1          8.3990     5.3010     5.0120 c3         1 QCA      -0.137100
      5 OG1          8.5800     7.6810     4.5970 oh         1 QCA      -0.564800
      6 C1           6.6130     7.3560     2.2960 cc         1 QCA       0.532900
      7 N2           6.3970     8.5340     2.7740 nd         1 QCA      -0.643300
      8 N3           5.9320     7.0940     1.1240 n          1 QCA      -0.379300
      9 C2           5.1350     8.1820     0.8470 c          1 QCA       0.680700
     10 O2           4.3450     8.2840    -0.0680 o          1 QCA      -0.585500
     11 CA2          5.4910     9.1410     1.9210 cd         1 QCA       0.050400
     12 CA3          5.7490     5.8080     0.4990 c3         1 QCA      -0.063000
     13 C3           4.7230     4.9110     1.2380 c          1 QCA       0.919600
     14 O3           4.4570     3.8480     0.6530 o          1 QCA      -0.818800
     15 CB2          5.0030    10.3920     1.9950 ce         1 QCA      -0.077200
     16 CG2          5.3070    11.4200     2.9710 ca         1 QCA      -0.078800
     17 CD1          6.1830    11.2430     4.0340 ca         1 QCA      -0.002000
     18 CD2          4.6910    12.6790     2.8370 ca         1 QCA      -0.041000
     19 CE1          6.4380    12.2810     4.9240 ca         1 QCA      -0.298200
     20 CE2          4.9420    13.7080     3.7100 ca         1 QCA      -0.209000
     21 CZ           5.8260    13.5440     4.7820 ca         1 QCA       0.222100
     22 OH           6.0190    14.5840     5.5740 oh         1 QCA      -0.495100
     23 N4           7.3570    12.0250     6.0040 no         1 QCA       0.325200
     24 O4           7.8610    10.9370     6.1040 o          1 QCA      -0.229500
     25 O5           7.5930    12.9350     6.7860 o          1 QCA      -0.229500
     26 H1           9.4350     5.6890     2.4800 hn         1 QCA       0.338300
     27 H2           8.6470     6.1650     1.1620 hn         1 QCA       0.338300
     28 H4           7.0520     5.3670     2.7970 h1         1 QCA       0.072700
     29 H5           6.7810     6.6780     4.8280 h1         1 QCA       0.053700
     30 H6           8.4930     5.4290     6.0920 hc         1 QCA       0.036033
     31 H7           7.7760     4.4220     4.8420 hc         1 QCA       0.036033
     32 H8           9.3960     5.0950     4.6190 hc         1 QCA       0.036033
     33 H9           8.6490     7.8160     5.5470 ho         1 QCA       0.392000
     34 H10          6.7070     5.2880     0.4310 h1         1 QCA       0.044200
     35 H11          5.4260     5.9760    -0.5280 h1         1 QCA       0.044200
     36 H13          4.3000    10.6750     1.2180 ha         1 QCA       0.136000
     37 H14          6.6750    10.2900     4.1640 ha         1 QCA       0.217000
     38 H15          4.0000    12.8470     2.0210 ha         1 QCA       0.138000
     39 H16          4.4580    14.6670     3.5830 ha         1 QCA       0.148000
     40 H17          6.6480    14.3400     6.2780 ho         1 QCA       0.475000
     41 OXT          4.2910     5.3320     2.3240 o          1 QCA      -0.818800
@<TRIPOS>BOND
     1     1     2 1   
     2     1    26 1   
     3     1    27 1   
     4     2     3 1   
     5     2     6 1   
     6     2    28 1   
     7     3     4 1   
     8     3     5 1   
     9     3    29 1   
    10     4    30 1   
    11     4    31 1   
    12     4    32 1   
    13     5    33 1   
    14     6     7 2   
    15     6     8 1   
    16     7    11 1   
    17     8     9 1   
    18     8    12 1   
    19     9    10 2   
    20     9    11 1   
    21    11    15 2   
    22    12    13 1   
    23    12    34 1   
    24    12    35 1   
    25    13    14 1   
    26    13    41 1   
    27    15    16 1   
    28    15    36 1   
    29    16    17 ar  
    30    16    18 ar  
    31    17    19 ar  
    32    17    37 1   
    33    18    20 ar  
    34    18    38 1   
    35    19    21 ar  
    36    19    23 1   
    37    20    21 ar  
    38    20    39 1   
    39    21    22 1   
    40    22    40 1   
    41    23    24 1   
    42    23    25 1   
@<TRIPOS>SUBSTRUCTURE
     1 QCA         1 TEMP              0 ****  ****    0 ROOT
