@<TRIPOS>MOLECULE
QCA
   41    42     1     0     0
SMALL
No Charge or Current Charge


@<TRIPOS>ATOM
      1 N1           9.2110     6.9680     2.2560 n8         1 QCA      -0.981200
      2 CA1          7.8280     6.5320     2.7020 c3         1 QCA       0.145200
      3 CB1          7.7430     6.2180     4.2400 c3         1 QCA       0.182300
      4 CG1          8.5550     4.9660     4.6420 c3         1 QCA      -0.137100
      5 OG1          8.2070     7.3200     5.0400 oh         1 QCA      -0.627000
      6 C1           6.6700     7.4420     2.2330 cc         1 QCA       0.532900
      7 N2           6.5270     8.7190     2.6310 nd         1 QCA      -0.643300
      8 N3           5.6940     7.0350     1.3250 n          1 QCA      -0.312300
      9 C2           4.8180     8.0660     1.0900 c          1 QCA       0.538200
     10 O2           3.8330     8.0750     0.3610 o          1 QCA      -0.510000
     11 CA2          5.3880     9.1240     1.9450 cd         1 QCA       0.050400
     12 CA3          5.5450     5.6940     0.6900 c3         1 QCA      -0.063000
     13 C3           4.8210     4.6500     1.5700 c          1 QCA       0.709000
     14 O3           3.8280     4.1010     1.1160 o          1 QCA      -0.713500
     15 CB2          4.8670    10.3970     2.0670 ce         1 QCA      -0.127200
     16 CG2          5.2740    11.5450     2.9350 ca         1 QCA      -0.078800
     17 CD1          5.8670    11.3520     4.2010 ca         1 QCA       0.016000
     18 CD2          5.0280    12.8540     2.4870 ca         1 QCA      -0.023000
     19 CE1          6.2310    12.4560     5.0150 ca         1 QCA      -0.298200
     20 CE2          5.3880    13.9520     3.2810 ca         1 QCA      -0.191000
     21 CZ           5.9870    13.7650     4.5330 ca         1 QCA       0.222100
     22 OH           6.3070    14.8780     5.2500 oh         1 QCA      -0.534100
     23 N4           6.8520    12.1920     6.3540 no         1 QCA       0.705200
     24 O4           6.9070    11.0230     6.7530 o          1 QCA      -0.419500
     25 O5           7.2680    13.1550     7.0120 o          1 QCA      -0.419500
     26 H1           9.9060     6.3110     2.6280 hn         1 QCA       0.393500
     27 H2           9.2930     6.8710     1.2370 hn         1 QCA       0.393500
     28 H4           7.6660     5.5600     2.2210 h1         1 QCA       0.072700
     29 H5           6.6900     6.0110     4.4770 h1         1 QCA       0.053700
     30 H6           8.4140     4.7380     5.7050 hc         1 QCA       0.036033
     31 H7           8.2240     4.0930     4.0670 hc         1 QCA       0.036033
     32 H8           9.6270     5.1110     4.4610 hc         1 QCA       0.036033
     33 H9           8.1340     7.0440     5.9780 ho         1 QCA       0.431000
     34 H10          6.5320     5.2960     0.4270 h1         1 QCA       0.044200
     35 H11          4.9840     5.8020    -0.2470 h1         1 QCA       0.044200
     36 H13          4.0090    10.5980     1.4240 ha         1 QCA       0.186000
     37 H14          6.0310    10.3350     4.5520 ha         1 QCA       0.199000
     38 H15          4.5640    13.0220     1.5170 ha         1 QCA       0.120000
     39 H16          5.1980    14.9600     2.9200 ha         1 QCA       0.130000
     40 H17          6.7450    14.5710     6.0790 ho         1 QCA       0.514000
     41 OXT          5.2500     4.4500     2.6960 o          1 QCA      -0.713500
@<TRIPOS>BOND
     1     1     2 1   
     2     1    26 1   
     3     1    27 1   
     4     2     3 1   
     5     2     6 1   
     6     2    28 1   
     7     3     4 1   
     8     3     5 1   
     9     3    29 1   
    10     4    30 1   
    11     4    31 1   
    12     4    32 1   
    13     5    33 1   
    14     6     7 2   
    15     6     8 1   
    16     7    11 1   
    17     8     9 1   
    18     8    12 1   
    19     9    10 2   
    20     9    11 1   
    21    11    15 2   
    22    12    13 1   
    23    12    34 1   
    24    12    35 1   
    25    13    14 1   
    26    13    41 1   
    27    15    16 1   
    28    15    36 1   
    29    16    17 ar  
    30    16    18 ar  
    31    17    19 ar  
    32    17    37 1   
    33    18    20 ar  
    34    18    38 1   
    35    19    21 ar  
    36    19    23 1   
    37    20    21 ar  
    38    20    39 1   
    39    21    22 1   
    40    22    40 1   
    41    23    24 1   
    42    23    25 1   
@<TRIPOS>SUBSTRUCTURE
     1 QCA         1 TEMP              0 ****  ****    0 ROOT
