@<TRIPOS>MOLECULE
QCB
   54    56     1     0     0
SMALL
abcg2


@<TRIPOS>ATOM
      1 N1          38.6390   -20.7300   -15.9930 nb         1 QCB      -0.321000
      2 C2          37.5970   -20.1140   -16.5440 ca         1 QCB       0.161900
      3 N3          37.4670   -19.6640   -17.7790 nb         1 QCB      -0.187000
      4 C4          38.5580   -19.8950   -18.5040 ca         1 QCB       0.135500
      5 C5          39.7170   -20.5220   -18.0740 ca         1 QCB      -0.091600
      6 C6          39.7300   -20.9540   -16.7350 ca         1 QCB       0.436900
      7 CX          34.8590   -22.7520   -22.8900 c          1 QCB       0.711000
      8 OX          34.5390   -21.6820   -22.3570 o          1 QCB      -0.716500
      9 CAX         34.4710   -22.9680   -24.3790 c3         1 QCB      -0.062300
     10 CBX         34.1000   -24.4290   -24.6660 c3         1 QCB       0.188300
     11 CGX         33.6610   -24.6450   -26.1020 c3         1 QCB      -0.084100
     12 OGX         35.1820   -25.2840   -24.3800 oh         1 QCB      -0.728000
     13 NX          35.5750   -22.5590   -25.2250 ns         1 QCB      -0.473900
     14 CCA         35.6980   -21.3410   -25.7750 c          1 QCB       0.624100
     15 CP2         36.9790   -21.1170   -26.5510 c3         1 QCB      -0.538400
     16 OCA         34.8410   -20.4680   -25.6930 o          1 QCB      -0.686100
     17 P1          38.5290   -21.6210   -25.6910 p5         1 QCB       1.404400
     18 OP3         39.6930   -20.9800   -26.3880 o          1 QCB      -0.817500
     19 OP1         38.4750   -23.1060   -25.4420 o          1 QCB      -0.817500
     20 O5          38.3210   -20.9450   -24.1970 os         1 QCB      -0.552400
     21 C10         38.4020   -19.5510   -24.0200 c3         1 QCB       0.229600
     22 C9          37.3770   -19.1310   -22.9860 c5         1 QCB       0.145300
     23 C3          37.4710   -17.6490   -22.6330 c5         1 QCB       0.145300
     24 O3          36.1810   -17.1830   -22.3280 oh         1 QCB      -0.688000
     25 C7          38.3620   -17.6860   -21.3940 c5         1 QCB       0.070300
     26 O2          38.2160   -16.5310   -20.6290 oh         1 QCB      -0.720000
     27 C1          37.8530   -18.9650   -20.7200 c5         1 QCB       0.277300
     28 O4          37.5830   -19.8520   -21.7680 os         1 QCB      -0.375000
     29 N9          38.7880   -19.5770   -19.8130 na         1 QCB      -0.272300
     30 C8          40.0460   -20.0350   -20.1010 cc         1 QCB       0.439700
     31 N7          40.6350   -20.6010   -19.0910 nd         1 QCB      -0.586100
     32 N6          40.7810   -21.5620   -16.1800 nv         1 QCB      -1.080900
     33 H1          36.7450   -19.9650   -15.8880 h5         1 QCB       0.033100
     34 H2          33.6140   -22.3380   -24.6180 h1         1 QCB       0.053700
     35 H3          33.2390   -24.6590   -24.0170 h1         1 QCB      -0.003300
     36 H4          32.8120   -24.0050   -26.3430 hc         1 QCB       0.016700
     37 H5          34.4630   -24.4210   -26.8060 hc         1 QCB       0.016700
     38 H6          33.3520   -25.6790   -26.2600 hc         1 QCB       0.016700
     39 H7          35.5070   -24.9370   -23.5160 ho         1 QCB       0.515000
     40 H8          36.3880   -23.1650   -25.2630 hn         1 QCB       0.359500
     41 H9          36.9420   -21.6930   -27.4810 hc         1 QCB       0.057200
     42 H10         37.0270   -20.0660   -26.8370 hc         1 QCB       0.057200
     43 H12         39.4120   -19.2660   -23.7010 h1         1 QCB       0.003200
     44 H13         38.1900   -18.9970   -24.9420 h1         1 QCB       0.003200
     45 H14         36.3770   -19.3640   -23.3670 h1         1 QCB       0.145700
     46 H15         37.9300   -17.0650   -23.4410 h1         1 QCB       0.044700
     47 H16         36.2530   -16.2880   -21.9800 ho         1 QCB       0.496000
     48 H17         39.4020   -17.8330   -21.7180 h1         1 QCB       0.042700
     49 H18         38.8820   -16.5230   -19.9330 ho         1 QCB       0.506000
     50 H19         36.9580   -18.7410   -20.1280 h2         1 QCB       0.109700
     51 H20         40.4760   -19.9270   -21.0870 h5         1 QCB       0.080800
     52 H21         40.7200   -21.9150   -15.2400 hn         1 QCB       0.494500
     53 H22         41.5850   -21.8100   -16.7290 hn         1 QCB       0.494500
     54 OXT         35.5030   -23.6910   -22.3480 o          1 QCB      -0.716500
@<TRIPOS>BOND
     1     1     2 ar  
     2     1     6 ar  
     3     2     3 ar  
     4     2    33 1   
     5     3     4 ar  
     6     4     5 ar  
     7     4    29 1   
     8     5     6 ar  
     9     5    31 1   
    10     6    32 1   
    11     7     8 1   
    12     7     9 1   
    13     7    54 1   
    14     9    10 1   
    15     9    13 1   
    16     9    34 1   
    17    10    11 1   
    18    10    12 1   
    19    10    35 1   
    20    11    36 1   
    21    11    37 1   
    22    11    38 1   
    23    12    39 1   
    24    13    14 1   
    25    13    40 1   
    26    14    15 1   
    27    14    16 2   
    28    15    17 1   
    29    15    41 1   
    30    15    42 1   
    31    17    18 1   
    32    17    19 1   
    33    17    20 1   
    34    20    21 1   
    35    21    22 1   
    36    21    43 1   
    37    21    44 1   
    38    22    23 1   
    39    22    28 1   
    40    22    45 1   
    41    23    24 1   
    42    23    25 1   
    43    23    46 1   
    44    24    47 1   
    45    25    26 1   
    46    25    27 1   
    47    25    48 1   
    48    26    49 1   
    49    27    28 1   
    50    27    29 1   
    51    27    50 1   
    52    29    30 1   
    53    30    31 2   
    54    30    51 1   
    55    32    52 1   
    56    32    53 1   
@<TRIPOS>SUBSTRUCTURE
     1 QCB         1 TEMP              0 ****  ****    0 ROOT
