@<TRIPOS>MOLECULE
QCB
   54    56     1     0     0
SMALL
No Charge or Current Charge


@<TRIPOS>ATOM
      1 N1          39.0900   -18.9670   -15.5970 nb         1 QCB      -0.321000
      2 C2          37.9440   -18.7120   -16.2750 ca         1 QCB       0.161900
      3 N3          37.8070   -18.5840   -17.6170 nb         1 QCB      -0.187000
      4 C4          38.9380   -18.7290   -18.3350 ca         1 QCB       0.135500
      5 C5          40.1510   -18.9880   -17.7480 ca         1 QCB      -0.091600
      6 C6          40.1980   -19.1020   -16.3420 ca         1 QCB       0.436900
      7 CX          34.1850   -25.9630   -25.4280 c          1 QCB       0.711000
      8 OX          34.2120   -26.7630   -24.5040 o          1 QCB      -0.716500
      9 CAX         34.0670   -24.4490   -25.1010 c3         1 QCB      -0.062300
     10 CBX         32.8620   -23.8180   -25.8570 c3         1 QCB       0.188300
     11 CGX         32.6160   -22.3290   -25.5310 c3         1 QCB      -0.084100
     12 OGX         33.0540   -23.9680   -27.2660 oh         1 QCB      -0.728000
     13 NX          35.3600   -23.7640   -25.3820 ns         1 QCB      -0.473900
     14 CCA         35.9240   -22.7770   -24.6130 c          1 QCB       0.624100
     15 CP2         37.1680   -22.1800   -25.1860 c3         1 QCB      -0.538400
     16 OCA         35.4160   -22.3650   -23.5830 o          1 QCB      -0.686100
     17 P1          38.5190   -22.9290   -24.2560 p5         1 QCB       1.404400
     18 OP3         39.7940   -22.7300   -25.0060 o          1 QCB      -0.817500
     19 OP1         38.2370   -24.3730   -24.0110 o          1 QCB      -0.817500
     20 O5          38.5070   -22.0760   -22.8840 os         1 QCB      -0.552400
     21 C10         38.8750   -20.6880   -22.8660 c3         1 QCB       0.229600
     22 C9          37.6260   -19.8170   -22.5320 c5         1 QCB       0.145300
     23 C3          37.7080   -18.3630   -23.0900 c5         1 QCB       0.145300
     24 O3          36.4570   -17.6700   -23.0600 oh         1 QCB      -0.688000
     25 C7          38.6890   -17.7290   -22.0640 c5         1 QCB       0.070300
     26 O2          38.5930   -16.2890   -22.0770 oh         1 QCB      -0.720000
     27 C1          38.1960   -18.3940   -20.7240 c5         1 QCB       0.277300
     28 O4          37.5270   -19.6240   -21.0950 os         1 QCB      -0.375000
     29 N9          39.1840   -18.6720   -19.6790 na         1 QCB      -0.272300
     30 C8          40.5540   -18.9050   -19.8610 cc         1 QCB       0.439700
     31 N7          41.1820   -19.1040   -18.6860 nd         1 QCB      -0.586100
     32 N6          41.3460   -19.3600   -15.6610 nv         1 QCB      -1.080900
     33 H1          37.0390   -18.5990   -15.6810 h5         1 QCB       0.033100
     34 H2          33.8640   -24.3730   -24.0250 h1         1 QCB       0.053700
     35 H3          31.9640   -24.3740   -25.5590 h1         1 QCB      -0.003300
     36 H4          32.4780   -22.1910   -24.4520 hc         1 QCB       0.016700
     37 H5          33.4560   -21.7040   -25.8550 hc         1 QCB       0.016700
     38 H6          31.7100   -21.9710   -26.0350 hc         1 QCB       0.016700
     39 H7          33.4940   -24.8580   -27.3520 ho         1 QCB       0.515000
     40 H8          35.8610   -24.0090   -26.2270 hn         1 QCB       0.359500
     41 H9          37.3270   -22.4750   -26.2270 hc         1 QCB       0.057200
     42 H10         37.1960   -21.0950   -25.0650 hc         1 QCB       0.057200
     43 H12         39.6640   -20.5150   -22.1240 h1         1 QCB       0.003200
     44 H13         39.2700   -20.3790   -23.8420 h1         1 QCB       0.003200
     45 H14         36.7260   -20.3250   -22.8960 h1         1 QCB       0.145700
     46 H15         38.1250   -18.3440   -24.1070 h1         1 QCB       0.044700
     47 H16         36.7160   -16.7540   -22.7940 ho         1 QCB       0.496000
     48 H17         39.7150   -18.0360   -22.3080 h1         1 QCB       0.042700
     49 H18         39.3700   -15.9290   -21.5840 ho         1 QCB       0.506000
     50 H19         37.4540   -17.7330   -20.2580 h2         1 QCB       0.109700
     51 H20         41.0220   -18.9230   -20.8380 h5         1 QCB       0.080800
     52 H21         41.2670   -19.7150   -14.7110 hn         1 QCB       0.494500
     53 H22         42.1440   -19.6790   -16.2050 hn         1 QCB       0.494500
     54 OXT         34.2550   -26.2850   -26.6090 o          1 QCB      -0.716500
@<TRIPOS>BOND
     1     1     2 ar  
     2     1     6 ar  
     3     2     3 ar  
     4     2    33 1   
     5     3     4 ar  
     6     4     5 ar  
     7     4    29 1   
     8     5     6 ar  
     9     5    31 1   
    10     6    32 1   
    11     7     8 1   
    12     7     9 1   
    13     7    54 1   
    14     9    10 1   
    15     9    13 1   
    16     9    34 1   
    17    10    11 1   
    18    10    12 1   
    19    10    35 1   
    20    11    36 1   
    21    11    37 1   
    22    11    38 1   
    23    12    39 1   
    24    13    14 1   
    25    13    40 1   
    26    14    15 1   
    27    14    16 2   
    28    15    17 1   
    29    15    41 1   
    30    15    42 1   
    31    17    18 1   
    32    17    19 1   
    33    17    20 1   
    34    20    21 1   
    35    21    22 1   
    36    21    43 1   
    37    21    44 1   
    38    22    23 1   
    39    22    28 1   
    40    22    45 1   
    41    23    24 1   
    42    23    25 1   
    43    23    46 1   
    44    24    47 1   
    45    25    26 1   
    46    25    27 1   
    47    25    48 1   
    48    26    49 1   
    49    27    28 1   
    50    27    29 1   
    51    27    50 1   
    52    29    30 1   
    53    30    31 2   
    54    30    51 1   
    55    32    52 1   
    56    32    53 1   
@<TRIPOS>SUBSTRUCTURE
     1 QCB         1 TEMP              0 ****  ****    0 ROOT
