@<TRIPOS>MOLECULE
QCC
   40    42     1     0     0
SMALL
abcg2


@<TRIPOS>ATOM
      1 N1         -19.5930     5.6710    26.7570 ns         1 QCC      -0.154000
      2 C4         -17.4930     4.6580    25.9840 ca         1 QCC       0.326900
      3 C5         -18.5000     5.6210    25.8760 ca         1 QCC      -0.077000
      4 C6         -19.6740     5.2000    28.0350 c          1 QCC       0.601100
      5 C7         -21.0180     5.5050    28.6960 c3         1 QCC      -0.113100
      6 C8         -21.2250     4.7600    29.9850 ca         1 QCC      -0.027300
      7 C10        -21.8630     2.7730    31.1550 ca         1 QCC       0.162000
      8 C13        -21.0700     4.7400    34.7830 cy         1 QCC       0.326700
      9 C15        -19.8010     4.7850    36.4310 c          1 QCC       0.578000
     10 O2         -19.1450     4.8610    37.4460 o          1 QCC      -0.503000
     11 C14        -20.0140     3.7390    35.3280 cy         1 QCC      -0.210400
     12 N2         -20.7050     5.6320    35.8590 ns         1 QCC      -0.528900
     13 O1         -20.7780     5.3410    33.5330 os         1 QCC      -0.355100
     14 C12        -21.1020     4.6620    32.3950 ca         1 QCC       0.155100
     15 C11        -21.5690     3.3500    32.3860 ca         1 QCC      -0.184000
     16 CL         -22.4560     1.1230    31.1320 cl         1 QCC      -0.206000
     17 C9         -21.7030     3.4470    29.9590 ca         1 QCC      -0.120000
     18 C16        -20.9280     5.3600    31.1990 ca         1 QCC      -0.119000
     19 O          -18.7660     4.6150    28.6050 o          1 QCC      -0.558100
     20 C1         -18.4350     6.5560    24.8290 ca         1 QCC      -0.089300
     21 C          -19.4840     7.6130    24.6500 c3         1 QCC      -0.051800
     22 N          -16.4570     4.5860    25.1450 nb         1 QCC      -0.643000
     23 C3         -16.3920     5.4770    24.1540 ca         1 QCC       0.314900
     24 C2         -17.3520     6.4600    23.9640 ca         1 QCC      -0.141000
     25 H1         -20.4010     6.1790    26.4270 hn         1 QCC       0.149000
     26 H2         -17.5330     3.9280    26.7780 h4         1 QCC       0.049100
     27 H3         -21.0550     6.5830    28.8690 hc         1 QCC       0.069200
     28 H4         -21.8150     5.2710    27.9870 hc         1 QCC       0.069200
     29 H5         -22.1080     4.4070    34.8010 h2         1 QCC       0.066700
     30 H6         -20.4020     2.7860    35.6830 hc         1 QCC       0.095200
     31 H7         -19.1630     3.5900    34.6670 hc         1 QCC       0.095200
     32 H8         -21.1390     6.4860    36.1850 hn         1 QCC       0.340500
     33 H9         -21.7060     2.7790    33.2910 ha         1 QCC       0.133000
     34 H10        -21.9430     2.9660    29.0210 ha         1 QCC       0.133000
     35 H11        -20.5630     6.3780    31.2360 ha         1 QCC       0.135000
     36 H12        -20.4630     7.1710    24.4390 hc         1 QCC       0.046033
     37 H13        -19.5900     8.2200    25.5530 hc         1 QCC       0.046033
     38 H14        -19.2280     8.2690    23.8200 hc         1 QCC       0.046033
     39 H15        -15.5430     5.4010    23.4830 h4         1 QCC       0.023100
     40 H16        -17.2550     7.1590    23.1420 ha         1 QCC       0.121000
@<TRIPOS>BOND
     1     1     3 1   
     2     1     4 1   
     3     1    25 1   
     4     2     3 ar  
     5     2    22 ar  
     6     2    26 1   
     7     3    20 ar  
     8     4     5 1   
     9     4    19 2   
    10     5     6 1   
    11     5    27 1   
    12     5    28 1   
    13     6    17 ar  
    14     6    18 ar  
    15     7    15 ar  
    16     7    16 1   
    17     7    17 ar  
    18     8    11 1   
    19     8    12 1   
    20     8    13 1   
    21     8    29 1   
    22     9    10 2   
    23     9    11 1   
    24     9    12 1   
    25    11    30 1   
    26    11    31 1   
    27    12    32 1   
    28    13    14 1   
    29    14    15 ar  
    30    14    18 ar  
    31    15    33 1   
    32    17    34 1   
    33    18    35 1   
    34    20    21 1   
    35    20    24 ar  
    36    21    36 1   
    37    21    37 1   
    38    21    38 1   
    39    22    23 ar  
    40    23    24 ar  
    41    23    39 1   
    42    24    40 1   
@<TRIPOS>SUBSTRUCTURE
     1 QCC         1 TEMP              0 ****  ****    0 ROOT
