@<TRIPOS>MOLECULE
QCC
   40    42     1     0     0
SMALL
No Charge or Current Charge


@<TRIPOS>ATOM
      1 N1         -19.3960     6.4410    27.2630 ns         1 QCC      -0.154000
      2 C4         -16.9680     6.4220    26.6630 ca         1 QCC       0.326900
      3 C5         -18.3220     6.1010    26.3870 ca         1 QCC      -0.077000
      4 C6         -19.4160     6.9650    28.5500 c          1 QCC       0.601100
      5 C7         -20.8210     7.1770    29.1230 c3         1 QCC      -0.113100
      6 C8         -21.1970     6.0250    30.0480 ca         1 QCC      -0.027300
      7 C10        -22.1820     3.8230    30.3900 ca         1 QCC       0.162000
      8 C13        -21.0010     4.0640    34.5310 cy         1 QCC       0.326700
      9 C15        -19.5650     3.4550    35.7740 c          1 QCC       0.578000
     10 O2         -18.8660     3.1600    36.7270 o          1 QCC      -0.503000
     11 C14        -19.8960     2.9320    34.3140 cy         1 QCC      -0.210400
     12 N2         -20.4900     4.4190    35.7660 ns         1 QCC      -0.528900
     13 O1         -20.9100     5.1500    33.6150 os         1 QCC      -0.355100
     14 C12        -21.2320     5.0260    32.2790 ca         1 QCC       0.155100
     15 C11        -21.8830     3.8870    31.7590 ca         1 QCC      -0.184000
     16 Cl         -22.9890     2.4020    29.7400 cl         1 QCC      -0.206000
     17 C9         -21.8420     4.8830    29.5360 ca         1 QCC      -0.120000
     18 C16        -20.8970     6.0870    31.4220 ca         1 QCC      -0.119000
     19 O          -18.4100     7.2180    29.2010 o          1 QCC      -0.558100
     20 C1         -18.6150     5.4230    25.1820 ca         1 QCC      -0.089300
     21 C          -20.0420     5.0390    24.8010 c3         1 QCC      -0.051800
     22 N          -15.9430     6.1070    25.8340 nb         1 QCC      -0.643000
     23 C3         -16.2360     5.4550    24.6890 ca         1 QCC       0.314900
     24 C2         -17.5450     5.1000    24.3280 ca         1 QCC      -0.141000
     25 H1         -20.3130     6.2630    26.8740 hn         1 QCC       0.149000
     26 H2         -16.6770     6.9560    27.5640 h4         1 QCC       0.049100
     27 H3         -20.8340     8.1190    29.6840 hc         1 QCC       0.069200
     28 H4         -21.5510     7.2310    28.3060 hc         1 QCC       0.069200
     29 H5         -22.0420     3.7240    34.5660 h2         1 QCC       0.066700
     30 H6         -20.2280     1.8910    34.3100 hc         1 QCC       0.095200
     31 H7         -19.0860     3.1370    33.6090 hc         1 QCC       0.095200
     32 H8         -21.0390     4.5920    36.5980 hn         1 QCC       0.340500
     33 H9         -22.1630     3.0530    32.3930 ha         1 QCC       0.133000
     34 H10        -22.0820     4.8140    28.4780 ha         1 QCC       0.133000
     35 H11        -20.3950     6.9600    31.8310 ha         1 QCC       0.135000
     36 H12        -20.4920     4.3880    25.5600 hc         1 QCC       0.046033
     37 H13        -20.6760     5.9280    24.6980 hc         1 QCC       0.046033
     38 H14        -20.0770     4.5010    23.8470 hc         1 QCC       0.046033
     39 H15        -15.3960     5.2120    24.0390 h4         1 QCC       0.023100
     40 H16        -17.7160     4.5770    23.3910 ha         1 QCC       0.121000
@<TRIPOS>BOND
     1     1     3 1   
     2     1     4 1   
     3     1    25 1   
     4     2     3 ar  
     5     2    22 ar  
     6     2    26 1   
     7     3    20 ar  
     8     4     5 1   
     9     4    19 2   
    10     5     6 1   
    11     5    27 1   
    12     5    28 1   
    13     6    17 ar  
    14     6    18 ar  
    15     7    15 ar  
    16     7    16 1   
    17     7    17 ar  
    18     8    11 1   
    19     8    12 1   
    20     8    13 1   
    21     8    29 1   
    22     9    10 2   
    23     9    11 1   
    24     9    12 1   
    25    11    30 1   
    26    11    31 1   
    27    12    32 1   
    28    13    14 1   
    29    14    15 ar  
    30    14    18 ar  
    31    15    33 1   
    32    17    34 1   
    33    18    35 1   
    34    20    21 1   
    35    20    24 ar  
    36    21    36 1   
    37    21    37 1   
    38    21    38 1   
    39    22    23 ar  
    40    23    24 ar  
    41    23    39 1   
    42    24    40 1   
@<TRIPOS>SUBSTRUCTURE
     1 QCC         1 TEMP              0 ****  ****    0 ROOT
