@<TRIPOS>MOLECULE
QCD
   43    44     1     0     0
SMALL
No Charge or Current Charge


@<TRIPOS>ATOM
      1 N1           8.4580     7.6980     3.6820 n8         1 QCD      -0.986200
      2 CA1          7.1880     7.0700     3.1350 c3         1 QCD       0.149200
      3 CB1          6.4180     6.2130     4.2020 c3         1 QCD       0.182300
      4 CG1          7.2250     4.9920     4.6960 c3         1 QCD      -0.137100
      5 OG1          6.0460     6.9960     5.3480 oh         1 QCD      -0.627000
      6 C1           6.2400     8.0390     2.3950 cc         1 QCD       0.513900
      7 N2           5.9250     9.2640     2.8530 nd         1 QCD      -0.639300
      8 N3           5.6660     7.7470     1.1600 n          1 QCD      -0.313300
      9 C2           4.9060     8.8110     0.7360 c          1 QCD       0.541200
     10 O2           4.2570     8.9200    -0.2970 o          1 QCD      -0.515000
     11 CA2          5.0980     9.7590     1.8490 cd         1 QCD       0.032400
     12 CA3          5.8260     6.4970     0.3620 c3         1 QCD      -0.063000
     13 C3           5.1950     5.2390     0.9960 c          1 QCD       0.709000
     14 O3           4.0080     5.2720     1.2860 o          1 QCD      -0.715000
     15 CB2          4.5260    11.0150     1.9090 ce         1 QCD      -0.101200
     16 CG2          4.6760    12.1250     2.9000 ca         1 QCD      -0.042800
     17 CD1          5.8590    12.3040     3.6490 ca         1 QCD      -0.117000
     18 CD2          3.6130    13.0350     3.0650 ca         1 QCD      -0.101000
     19 CE1          5.9700    13.3720     4.5690 ca         1 QCD       0.031100
     20 CE2          3.7190    14.0990     3.9770 ca         1 QCD      -0.141000
     21 CZ           4.8910    14.2650     4.7270 ca         1 QCD       0.112100
     22 OH           4.9950    15.2970     5.6120 oh         1 QCD      -0.545100
     23 C4           8.2570    12.7180     5.2560 c3         1 QCD       0.155900
     24 O4           7.1090    13.5850     5.3290 os         1 QCD      -0.381100
     25 H1           9.0350     6.9690     4.1140 hn         1 QCD       0.395000
     26 H2           9.0310     8.0470     2.9050 hn         1 QCD       0.395000
     27 H4           7.5310     6.3500     2.3800 h1         1 QCD       0.070700
     28 H5           5.5100     5.8250     3.7200 h1         1 QCD       0.053700
     29 H6           6.6180     4.3740     5.3680 hc         1 QCD       0.036033
     30 H7           7.5300     4.3650     3.8500 hc         1 QCD       0.036033
     31 H8           8.1270     5.3010     5.2380 hc         1 QCD       0.036033
     32 H9           5.6540     6.3800     6.0010 ho         1 QCD       0.417000
     33 H10          6.8960     6.3130     0.2040 h1         1 QCD       0.042700
     34 H11          5.3700     6.6300    -0.6270 h1         1 QCD       0.042700
     35 H13          3.8530    11.2430     1.0810 ha         1 QCD       0.184000
     36 H14          6.6870    11.6200     3.5000 ha         1 QCD       0.168000
     37 H15          2.6990    12.9150     2.4880 ha         1 QCD       0.112000
     38 H16          2.8910    14.7940     4.1000 ha         1 QCD       0.118000
     39 H17          5.8880    15.2210     6.0170 ho         1 QCD       0.477000
     40 H18          9.0390    13.0620     5.9450 h1         1 QCD       0.042033
     41 H19          7.9890    11.6900     5.5330 h1         1 QCD       0.042033
     42 H20          8.6780    12.7110     4.2420 h1         1 QCD       0.042033
     43 OXT          5.9270     4.2950     1.2460 o          1 QCD      -0.715000
@<TRIPOS>BOND
     1     1     2 1   
     2     1    25 1   
     3     1    26 1   
     4     2     3 1   
     5     2     6 1   
     6     2    27 1   
     7     3     4 1   
     8     3     5 1   
     9     3    28 1   
    10     4    29 1   
    11     4    30 1   
    12     4    31 1   
    13     5    32 1   
    14     6     7 2   
    15     6     8 1   
    16     7    11 1   
    17     8     9 1   
    18     8    12 1   
    19     9    10 2   
    20     9    11 1   
    21    11    15 2   
    22    12    13 1   
    23    12    33 1   
    24    12    34 1   
    25    13    14 1   
    26    13    43 1   
    27    15    16 1   
    28    15    35 1   
    29    16    17 ar  
    30    16    18 ar  
    31    17    19 ar  
    32    17    36 1   
    33    18    20 ar  
    34    18    37 1   
    35    19    21 ar  
    36    19    24 1   
    37    20    21 ar  
    38    20    38 1   
    39    21    22 1   
    40    22    39 1   
    41    23    24 1   
    42    23    40 1   
    43    23    41 1   
    44    23    42 1   
@<TRIPOS>SUBSTRUCTURE
     1 QCD         1 TEMP              0 ****  ****    0 ROOT
