@<TRIPOS>MOLECULE
QCD
   43    44     1     0     0
SMALL
abcg2


@<TRIPOS>ATOM
      1 N1           8.4470     6.9350     2.2420 n8         1 QCD      -0.986200
      2 CA1          7.1440     6.9580     2.9000 c3         1 QCD       0.149200
      3 CB1          7.2820     7.2260     4.4040 c3         1 QCD       0.182300
      4 CG1          7.8580     6.0110     5.1250 c3         1 QCD      -0.137100
      5 OG1          8.0840     8.3670     4.6110 oh         1 QCD      -0.627000
      6 C1           6.2780     7.9710     2.2100 cc         1 QCD       0.513900
      7 N2           5.9820     9.1360     2.6710 nd         1 QCD      -0.639300
      8 N3           5.7560     7.7180     0.9560 n          1 QCD      -0.313300
      9 C2           4.9840     8.8020     0.5960 c          1 QCD       0.541200
     10 O2           4.3190     8.9050    -0.4160 o          1 QCD      -0.515000
     11 CA2          5.1790     9.7440     1.7180 cd         1 QCD       0.032400
     12 CA3          5.6180     6.4320     0.3190 c3         1 QCD      -0.063000
     13 C3           4.4400     5.5980     0.8880 c          1 QCD       0.709000
     14 O3           4.2090     4.5460     0.2700 o          1 QCD      -0.715000
     15 CB2          4.6440    10.9800     1.7580 ce         1 QCD      -0.101200
     16 CG2          4.7730    11.9930     2.7820 ca         1 QCD      -0.042800
     17 CD1          5.5710    11.8270     3.9300 ca         1 QCD      -0.117000
     18 CD2          4.0750    13.1910     2.6240 ca         1 QCD      -0.101000
     19 CE1          5.6540    12.8250     4.8760 ca         1 QCD       0.031100
     20 CE2          4.1560    14.1960     3.5750 ca         1 QCD      -0.141000
     21 CZ           4.9380    14.0270     4.7070 ca         1 QCD       0.112100
     22 OH           4.9990    15.0080     5.6180 oh         1 QCD      -0.545100
     23 C4           7.1450    11.5970     6.2540 c3         1 QCD       0.155900
     24 O4           6.3870    12.7640     6.0070 os         1 QCD      -0.381100
     25 H1           9.0010     6.1780     2.6230 hn         1 QCD       0.395000
     26 H2           8.3430     6.7150     1.2590 hn         1 QCD       0.395000
     27 H4           6.6100     5.9980     2.8290 h1         1 QCD       0.070700
     28 H5           6.2650     7.3870     4.7860 h1         1 QCD       0.053700
     29 H6           7.8810     6.1850     6.2020 hc         1 QCD       0.036033
     30 H7           7.2470     5.1250     4.9510 hc         1 QCD       0.036033
     31 H8           8.8790     5.7920     4.8080 hc         1 QCD       0.036033
     32 H9           8.1360     8.5190     5.5590 ho         1 QCD       0.417000
     33 H10          6.5460     5.8640     0.4130 h1         1 QCD       0.042700
     34 H11          5.4750     6.5960    -0.7490 h1         1 QCD       0.042700
     35 H13          4.0310    11.2550     0.9040 ha         1 QCD       0.184000
     36 H14          6.1170    10.9020     4.0530 ha         1 QCD       0.168000
     37 H15          3.4580    13.3420     1.7480 ha         1 QCD       0.112000
     38 H16          3.6080    15.1210     3.4450 ha         1 QCD       0.118000
     39 H17          5.5820    14.7560     6.3460 ho         1 QCD       0.477000
     40 H18          7.6450    11.7480     7.2070 h1         1 QCD       0.042033
     41 H19          6.5120    10.7090     6.3220 h1         1 QCD       0.042033
     42 H20          7.8980    11.4330     5.4790 h1         1 QCD       0.042033
     43 OXT          3.8680     6.0520     1.8930 o          1 QCD      -0.715000
@<TRIPOS>BOND
     1     1     2 1   
     2     1    25 1   
     3     1    26 1   
     4     2     3 1   
     5     2     6 1   
     6     2    27 1   
     7     3     4 1   
     8     3     5 1   
     9     3    28 1   
    10     4    29 1   
    11     4    30 1   
    12     4    31 1   
    13     5    32 1   
    14     6     7 2   
    15     6     8 1   
    16     7    11 1   
    17     8     9 1   
    18     8    12 1   
    19     9    10 2   
    20     9    11 1   
    21    11    15 2   
    22    12    13 1   
    23    12    33 1   
    24    12    34 1   
    25    13    14 1   
    26    13    43 1   
    27    15    16 1   
    28    15    35 1   
    29    16    17 ar  
    30    16    18 ar  
    31    17    19 ar  
    32    17    36 1   
    33    18    20 ar  
    34    18    37 1   
    35    19    21 ar  
    36    19    24 1   
    37    20    21 ar  
    38    20    38 1   
    39    21    22 1   
    40    22    39 1   
    41    23    24 1   
    42    23    40 1   
    43    23    41 1   
    44    23    42 1   
@<TRIPOS>SUBSTRUCTURE
     1 QCD         1 TEMP              0 ****  ****    0 ROOT
