@<TRIPOS>MOLECULE
QCE
   45    46     1     0     0
SMALL
bcc


@<TRIPOS>ATOM
      1 N          -30.8150    30.8880    14.8940 ns         1 QCE      -0.572900
      2 C4         -28.5970    33.8070    12.9270 c          1 QCE       0.733700
      3 N3         -29.2570    32.7910    12.2390 n          1 QCE      -0.484400
      4 C2         -28.8370    32.2360    11.0500 c          1 QCE       0.831500
      5 O2         -29.4150    31.3050    10.5210 o          1 QCE      -0.645500
      6 C5         -27.4690    34.3950    12.2440 cc         1 QCE      -0.280400
      7 C7         -26.7540    35.5380    12.8890 c3         1 QCE      -0.011900
      8 C6         -27.0930    33.8700    11.0650 cd         1 QCE       0.059600
      9 N1         -27.7320    32.8160    10.4820 n          1 QCE      -0.392000
     10 C1         -27.2960    32.2530     9.1800 c5         1 QCE       0.329500
     11 O4         -25.9640    32.6040     8.9550 os         1 QCE      -0.401600
     12 C9         -28.1030    32.8060     8.0080 c5         1 QCE      -0.164400
     13 C3         -27.2160    33.9410     7.5040 c5         1 QCE       0.115100
     14 O3         -27.3560    34.2580     6.1470 oh         1 QCE      -0.583800
     15 C8         -25.8320    33.3500     7.7480 c5         1 QCE       0.136100
     16 C10        -24.6810    34.3200     7.8440 c3         1 QCE       0.167400
     17 O5         -24.9420    35.2870     8.8530 os         1 QCE      -0.371900
     18 P          -23.7960    36.2600     9.5170 p3         1 QCE       0.268300
     19 OP1        -22.6280    35.1950     9.9480 oh         1 QCE      -0.502100
     20 OP2        -22.9690    36.7790     8.2010 oh         1 QCE      -0.502100
     21 CA         -30.5640    29.9330    15.9490 c3         1 QCE       0.097300
     22 C11        -29.8960    31.2090    13.9800 c          1 QCE       0.658100
     23 O21        -28.7650    30.7500    13.9650 o          1 QCE      -0.592100
     24 C12        -30.3800    32.1780    12.9110 c3         1 QCE       0.008000
     25 H1         -31.7200    31.3260    14.8540 hn         1 QCE       0.314500
     26 H2         -26.3430    35.2580    13.8600 hc         1 QCE       0.042033
     27 H3         -25.9290    35.8820    12.2660 hc         1 QCE       0.042033
     28 H4         -27.4210    36.3860    13.0510 hc         1 QCE       0.042033
     29 H5         -26.2460    34.2610    10.5230 h4         1 QCE       0.183000
     30 H6         -27.3840    31.1710     9.2710 h2         1 QCE       0.109700
     31 H7         -29.1070    33.1200     8.2900 hc         1 QCE       0.079700
     32 H8         -28.1890    32.0410     7.2330 hc         1 QCE       0.079700
     33 H9         -27.3620    34.8290     8.1320 h1         1 QCE       0.061700
     34 H10        -28.1540    34.7830     6.0380 ho         1 QCE       0.414000
     35 H11        -25.6000    32.6660     6.9190 h1         1 QCE       0.071700
     36 H12        -23.7580    33.7690     8.0480 h1         1 QCE       0.054700
     37 H13        -24.5680    34.8010     6.8690 h1         1 QCE       0.054700
     38 H14        -22.6790    34.9750    10.8850 ho         1 QCE       0.435500
     39 H15        -23.3290    37.6050     7.8570 ho         1 QCE       0.435500
     40 H16        -31.4620    29.8500    16.5550 h1         1 QCE       0.040700
     41 H17        -30.3260    28.9470    15.5510 h1         1 QCE       0.040700
     42 H18        -29.7440    30.2520    16.5930 h1         1 QCE       0.040700
     43 H19        -31.0160    32.9510    13.3390 h1         1 QCE       0.085700
     44 H20        -30.9780    31.6330    12.1830 h1         1 QCE       0.085700
     45 O1         -28.9920    34.1530    14.0270 o          1 QCE      -0.610500
@<TRIPOS>BOND
     1     1    21 1   
     2     1    22 1   
     3     1    25 1   
     4     2     3 1   
     5     2     6 1   
     6     2    45 2   
     7     3     4 1   
     8     3    24 1   
     9     4     5 2   
    10     4     9 1   
    11     6     7 1   
    12     6     8 2   
    13     7    26 1   
    14     7    27 1   
    15     7    28 1   
    16     8     9 1   
    17     8    29 1   
    18     9    10 1   
    19    10    11 1   
    20    10    12 1   
    21    10    30 1   
    22    11    15 1   
    23    12    13 1   
    24    12    31 1   
    25    12    32 1   
    26    13    14 1   
    27    13    15 1   
    28    13    33 1   
    29    14    34 1   
    30    15    16 1   
    31    15    35 1   
    32    16    17 1   
    33    16    36 1   
    34    16    37 1   
    35    17    18 1   
    36    18    19 1   
    37    18    20 1   
    38    19    38 1   
    39    20    39 1   
    40    21    40 1   
    41    21    41 1   
    42    21    42 1   
    43    22    23 2   
    44    22    24 1   
    45    24    43 1   
    46    24    44 1   
@<TRIPOS>SUBSTRUCTURE
     1 QCE         1 TEMP              0 ****  ****    0 ROOT
