@<TRIPOS>MOLECULE
QCE
   45    46     1     0     0
SMALL
No Charge or Current Charge


@<TRIPOS>ATOM
      1 N          -30.9530    30.3510    14.8600 ns         1 QCE      -0.505900
      2 C4         -28.9220    34.0460    13.0580 c          1 QCE       0.591200
      3 N3         -29.3900    32.8560    12.4820 n          1 QCE      -0.350400
      4 C2         -28.8820    32.3080    11.2950 c          1 QCE       0.622000
      5 O2         -29.3190    31.2540    10.8480 o          1 QCE      -0.570000
      6 C5         -27.8440    34.7330    12.3090 cc         1 QCE      -0.280400
      7 C7         -27.3320    36.0190    12.9170 c3         1 QCE      -0.011900
      8 C6         -27.3570    34.2040    11.1380 cd         1 QCE       0.009600
      9 N1         -27.8640    33.0120    10.6290 n          1 QCE      -0.325000
     10 C1         -27.3290    32.4370     9.3660 c5         1 QCE       0.352700
     11 O4         -25.9270    32.7530     9.2190 os         1 QCE      -0.448000
     12 C9         -28.0710    33.1520     8.1900 c5         1 QCE      -0.164400
     13 C3         -26.9900    34.1070     7.6240 c5         1 QCE       0.138300
     14 O3         -27.2160    34.3960     6.2410 oh         1 QCE      -0.706000
     15 C8         -25.7220    33.2430     7.8750 c5         1 QCE       0.159300
     16 C10        -24.3740    34.0020     7.7580 c3         1 QCE       0.190600
     17 O5         -24.3250    35.0500     8.7540 os         1 QCE      -0.395100
     18 P          -23.0220    36.0780     8.9190 p3         1 QCE       0.268300
     19 OP1        -21.8110    34.9410     9.0270 oh         1 QCE      -0.541100
     20 OP2        -22.9290    36.6220     7.3480 oh         1 QCE      -0.541100
     21 CA         -30.7020    29.3060    15.8560 c3         1 QCE       0.097300
     22 C11        -29.9640    31.0510    14.2040 c          1 QCE       0.591100
     23 O21        -28.7760    30.8400    14.4170 o          1 QCE      -0.592100
     24 C12        -30.4720    32.1030    13.2010 c3         1 QCE       0.008000
     25 H1         -31.9140    30.5820    14.6320 hn         1 QCE       0.314500
     26 H2         -26.9160    35.8450    13.9170 hc         1 QCE       0.042033
     27 H3         -26.5390    36.4640    12.3020 hc         1 QCE       0.042033
     28 H4         -28.1350    36.7610    13.0070 hc         1 QCE       0.042033
     29 H5         -26.5620    34.6590    10.5510 h4         1 QCE       0.233000
     30 H6         -27.4890    31.3500     9.3620 h2         1 QCE       0.109700
     31 H7         -28.9770    33.6820     8.5030 hc         1 QCE       0.079700
     32 H8         -28.3790    32.4110     7.4440 hc         1 QCE       0.079700
     33 H9         -26.9420    35.0350     8.2120 h1         1 QCE       0.061700
     34 H10        -28.0330    34.9450     6.1880 ho         1 QCE       0.513000
     35 H11        -25.6970    32.3850     7.1890 h1         1 QCE       0.071700
     36 H12        -23.5550    33.2870     7.9030 h1         1 QCE       0.054700
     37 H13        -24.2890    34.4180     6.7460 h1         1 QCE       0.054700
     38 H14        -21.2910    35.1480     9.8320 ho         1 QCE       0.474500
     39 H15        -22.9150    37.6020     7.3820 ho         1 QCE       0.474500
     40 H16        -31.6580    28.9100    16.2220 h1         1 QCE       0.040700
     41 H17        -30.1250    28.4910    15.4000 h1         1 QCE       0.040700
     42 H18        -30.1380    29.7260    16.6990 h1         1 QCE       0.040700
     43 H19        -31.1200    32.7970    13.7500 h1         1 QCE       0.085700
     44 H20        -31.1190    31.5870    12.4800 h1         1 QCE       0.085700
     45 O1         -29.3770    34.4800    14.1090 o          1 QCE      -0.535000
@<TRIPOS>BOND
     1     1    21 1   
     2     1    22 1   
     3     1    25 1   
     4     2     3 1   
     5     2     6 1   
     6     2    45 2   
     7     3     4 1   
     8     3    24 1   
     9     4     5 2   
    10     4     9 1   
    11     6     7 1   
    12     6     8 2   
    13     7    26 1   
    14     7    27 1   
    15     7    28 1   
    16     8     9 1   
    17     8    29 1   
    18     9    10 1   
    19    10    11 1   
    20    10    12 1   
    21    10    30 1   
    22    11    15 1   
    23    12    13 1   
    24    12    31 1   
    25    12    32 1   
    26    13    14 1   
    27    13    15 1   
    28    13    33 1   
    29    14    34 1   
    30    15    16 1   
    31    15    35 1   
    32    16    17 1   
    33    16    36 1   
    34    16    37 1   
    35    17    18 1   
    36    18    19 1   
    37    18    20 1   
    38    19    38 1   
    39    20    39 1   
    40    21    40 1   
    41    21    41 1   
    42    21    42 1   
    43    22    23 2   
    44    22    24 1   
    45    24    43 1   
    46    24    44 1   
@<TRIPOS>SUBSTRUCTURE
     1 QCE         1 TEMP              0 ****  ****    0 ROOT
