@<TRIPOS>MOLECULE
QCG
   66    70     1     0     0
SMALL
abcg2


@<TRIPOS>ATOM
      1 C13          0.1870    -1.4630    -1.0790 ca         1 QCG       0.021700
      2 C18         -6.0650    -1.5330     0.5780 ca         1 QCG      -0.122000
      3 C17         -4.8210    -0.9420     0.4260 ca         1 QCG      -0.092500
      4 C16         -4.6990     0.4480     0.3520 ca         1 QCG      -0.073900
      5 C15         -3.0830     2.4350     0.0520 cc         1 QCG      -0.395600
      6 C19         -7.2100    -0.7490     0.6560 ca         1 QCG      -0.120000
      7 C20         -7.0980     0.6330     0.5840 ca         1 QCG      -0.122000
      8 C21         -5.8540     1.2260     0.4330 ca         1 QCG      -0.092500
      9 C23          5.1750     0.9090     0.4030 c3         1 QCG      -0.103100
     10 C24          3.6110     0.5800     2.3200 c3         1 QCG      -0.103100
     11 C11          0.8120    -3.3340     0.3220 ca         1 QCG       0.104100
     12 C12          0.4540    -2.8320    -0.9320 ca         1 QCG      -0.143300
     13 C27         -0.2920    -0.8860    -2.3790 c3         1 QCG      -0.075800
     14 C1          -1.7050     2.4750    -0.0750 cd         1 QCG       0.385500
     15 C10          0.9260    -2.4610     1.3990 ca         1 QCG       0.115000
     16 C14         -3.3830     1.0730     0.1900 cc         1 QCG       0.404200
     17 C2           0.4410     3.1860    -0.3430 cc         1 QCG       0.438300
     18 C25          4.8540     2.7320     2.0720 c3         1 QCG      -0.103100
     19 C26          0.3610    -3.7860    -2.0970 c6         1 QCG      -0.022100
     20 C28          0.6300    -5.5720    -0.3980 c6         1 QCG       0.162600
     21 C29          1.0200    -5.1230    -1.7860 c6         1 QCG      -0.115400
     22 C3           0.9380     1.8370    -0.2640 cc         1 QCG      -0.075300
     23 C4           0.0320     0.8280    -0.0900 cd         1 QCG      -0.008000
     24 C5           0.3300    -0.6170     0.0210 ca         1 QCG      -0.039000
     25 C6           2.4170     1.5390    -0.3910 c3         1 QCG       0.070600
     26 C7           2.9090     1.8730    -1.8310 c          1 QCG       0.712000
     27 C9           0.6900    -1.1170     1.2660 ca         1 QCG      -0.090000
     28 F1           1.2730    -2.9630     2.5950 f          1 QCG      -0.181000
     29 N1          -1.2860     1.1670    -0.0040 na         1 QCG       0.136900
     30 N2          -0.8320     3.4750    -0.2430 nd         1 QCG      -0.693000
     31 N3          -2.2900     0.3130     0.1580 nd         1 QCG      -0.588100
     32 O1           3.1030     2.2340     0.6170 os         1 QCG      -0.459000
     33 O2           2.2450     1.3280    -2.7360 o          1 QCG      -0.711000
     34 O3           3.8930     2.6130    -1.9630 o          1 QCG      -0.711000
     35 O4           1.0630    -4.6310     0.5790 os         1 QCG      -0.335100
     36 H8          -6.1410    -2.6110     0.6320 ha         1 QCG       0.103000
     37 H7          -3.9360    -1.5610     0.3640 ha         1 QCG       0.124500
     38 H6          -3.7540     3.2770     0.0400 ha         1 QCG       0.213000
     39 H9          -8.1810    -1.2120     0.7750 ha         1 QCG       0.100000
     40 H10         -7.9820     1.2540     0.6440 ha         1 QCG       0.103000
     41 H11         -5.7880     2.3050     0.3820 ha         1 QCG       0.124500
     42 H15          4.7300     0.0830    -0.1550 hc         1 QCG       0.035367
     43 H14          5.6050     1.6070    -0.3120 hc         1 QCG       0.035367
     44 H13          5.9820     0.4890     1.0060 hc         1 QCG       0.035367
     45 H18          4.4090     0.1980     2.9580 hc         1 QCG       0.035367
     46 H16          2.8520     1.0320     2.9610 hc         1 QCG       0.035367
     47 H17          3.1660    -0.2770     1.8150 hc         1 QCG       0.035367
     48 H25         -1.3450    -0.6050    -2.2980 hc         1 QCG       0.064367
     49 H26          0.2780     0.0060    -2.6370 hc         1 QCG       0.064367
     50 H24         -0.2110    -1.5840    -3.2080 hc         1 QCG       0.064367
     51 H21          5.2690     3.4630     1.3770 hc         1 QCG       0.035367
     52 H19          4.1550     3.2480     2.7340 hc         1 QCG       0.035367
     53 H20          5.6710     2.3460     2.6830 hc         1 QCG       0.035367
     54 H23         -0.6890    -3.9420    -2.3600 hc         1 QCG       0.055700
     55 H22          0.8330    -3.3490    -2.9780 hc         1 QCG       0.055700
     56 H28         -0.4560    -5.6970    -0.3270 h1         1 QCG       0.047200
     57 H27          1.0980    -6.5170    -0.1260 h1         1 QCG       0.047200
     58 H30          0.7130    -5.8770    -2.5120 hc         1 QCG       0.052200
     59 H29          2.1080    -5.0390    -1.8510 hc         1 QCG       0.052200
     60 H1           2.5320     0.4540    -0.2810 h1         1 QCG       0.039700
     61 H3           1.7720     4.3170    -1.5850 hc         1 QCG       0.069033
     62 H4           0.7920     5.2740    -0.4760 hc         1 QCG       0.069033
     63 H2           2.1950     4.3540     0.1110 hc         1 QCG       0.069033
     64 H5           0.7740    -0.4620     2.1240 ha         1 QCG       0.137000
     65 C22          4.1670     1.5970     1.3210 c3         1 QCG       0.207000
     66 C8           1.3540     4.3490    -0.5780 c3         1 QCG      -0.154400
@<TRIPOS>BOND
     1     1    12 ar  
     2     1    13 1   
     3     1    24 ar  
     4     2     3 ar  
     5     2     6 ar  
     6     2    36 1   
     7     3     4 ar  
     8     3    37 1   
     9     4     8 ar  
    10     4    16 1   
    11     5    14 2   
    12     5    16 1   
    13     5    38 1   
    14     6     7 ar  
    15     6    39 1   
    16     7     8 ar  
    17     7    40 1   
    18     8    41 1   
    19     9    42 1   
    20     9    43 1   
    21     9    44 1   
    22     9    65 1   
    23    10    45 1   
    24    10    46 1   
    25    10    47 1   
    26    10    65 1   
    27    11    12 ar  
    28    11    15 ar  
    29    11    35 1   
    30    12    19 1   
    31    13    48 1   
    32    13    49 1   
    33    13    50 1   
    34    14    29 1   
    35    14    30 1   
    36    15    27 ar  
    37    15    28 1   
    38    16    31 2   
    39    17    22 1   
    40    17    30 2   
    41    17    66 1   
    42    18    51 1   
    43    18    52 1   
    44    18    53 1   
    45    18    65 1   
    46    19    21 1   
    47    19    54 1   
    48    19    55 1   
    49    20    21 1   
    50    20    35 1   
    51    20    56 1   
    52    20    57 1   
    53    21    58 1   
    54    21    59 1   
    55    22    23 2   
    56    22    25 1   
    57    23    24 1   
    58    23    29 1   
    59    24    27 ar  
    60    25    26 1   
    61    25    32 1   
    62    25    60 1   
    63    26    33 1   
    64    26    34 1   
    65    27    64 1   
    66    29    31 1   
    67    32    65 1   
    68    61    66 1   
    69    62    66 1   
    70    63    66 1   
@<TRIPOS>SUBSTRUCTURE
     1 QCG         1 TEMP              0 ****  ****    0 ROOT
