@<TRIPOS>MOLECULE
QCG
   66    70     1     0     0
SMALL
No Charge or Current Charge


@<TRIPOS>ATOM
      1 C13          0.0610    -1.6950    -1.1100 ca         1 QCG       0.021700
      2 C18         -6.4040    -1.3080     0.3100 ca         1 QCG      -0.122000
      3 C17         -5.0820    -0.8460     0.1980 ca         1 QCG      -0.092500
      4 C16         -4.7930     0.5410     0.1980 ca         1 QCG      -0.073900
      5 C15         -3.0050     2.3840     0.0690 cc         1 QCG      -0.395600
      6 C19         -7.4620    -0.3950     0.4250 ca         1 QCG      -0.120000
      7 C20         -7.1960     0.9820     0.4260 ca         1 QCG      -0.122000
      8 C21         -5.8740     1.4480     0.3140 ca         1 QCG      -0.092500
      9 C23          5.4140     1.4690     0.3040 c3         1 QCG      -0.103100
     10 C24          3.9750     0.5380     2.2040 c3         1 QCG      -0.103100
     11 C11          1.0920    -3.4620     0.2510 ca         1 QCG       0.104100
     12 C12          0.4110    -3.0630    -0.9280 ca         1 QCG      -0.143300
     13 C27         -0.6510    -1.2620    -2.3990 c3         1 QCG      -0.075800
     14 C1          -1.6650     2.3780    -0.0460 cd         1 QCG       0.385500
     15 C10          1.4530    -2.5020     1.2120 ca         1 QCG       0.115000
     16 C14         -3.3990     1.0160     0.0790 cc         1 QCG       0.404200
     17 C2           0.3770     3.1680    -0.0990 cc         1 QCG       0.438300
     18 C25          4.8180     2.9250     2.2980 c3         1 QCG      -0.103100
     19 C26          0.0470    -4.1220    -1.9880 c6         1 QCG      -0.022100
     20 C28          0.7840    -5.8210    -0.2880 c6         1 QCG       0.162600
     21 C29          0.7930    -5.4530    -1.7780 c6         1 QCG      -0.115400
     22 C3           0.9150     1.7830    -0.1500 cc         1 QCG      -0.075300
     23 C4           0.0270     0.6850    -0.2010 cd         1 QCG      -0.008000
     24 C5           0.4190    -0.7400    -0.1170 ca         1 QCG      -0.039000
     25 C6           2.4280     1.5560    -0.2950 c3         1 QCG       0.070600
     26 C7           2.9150     1.8280    -1.7710 c          1 QCG       0.712000
     27 C9           1.1120    -1.1590     1.0310 ca         1 QCG      -0.090000
     28 F1           2.1050    -2.8710     2.3400 f          1 QCG      -0.181000
     29 N1          -1.3150     1.0590    -0.1200 na         1 QCG       0.136900
     30 N2          -0.9130     3.5140    -0.0350 nd         1 QCG      -0.693000
     31 N3          -2.3710     0.1710    -0.0210 nd         1 QCG      -0.588100
     32 O1           3.1270     2.3160     0.7450 os         1 QCG      -0.459000
     33 O2           2.4550     1.1150    -2.6530 o          1 QCG      -0.711000
     34 O3           3.6890     2.7460    -2.0110 o          1 QCG      -0.711000
     35 O4           1.4260    -4.7860     0.4800 os         1 QCG      -0.335100
     36 H8          -6.6070    -2.3770     0.3080 ha         1 QCG       0.103000
     37 H7          -4.2800    -1.5760     0.1100 ha         1 QCG       0.124500
     38 H6          -3.6420     3.2530     0.1560 ha         1 QCG       0.213000
     39 H9          -8.4860    -0.7530     0.5120 ha         1 QCG       0.100000
     40 H10         -8.0150     1.6930     0.5150 ha         1 QCG       0.103000
     41 H11         -5.7050     2.5210     0.3190 ha         1 QCG       0.124500
     42 H15          5.0900     0.6720    -0.3750 hc         1 QCG       0.035367
     43 H14          5.6640     2.3590    -0.2840 hc         1 QCG       0.035367
     44 H13          6.3350     1.1280     0.7920 hc         1 QCG       0.035367
     45 H18          4.8140     0.2600     2.8530 hc         1 QCG       0.035367
     46 H16          3.1070     0.7320     2.8440 hc         1 QCG       0.035367
     47 H17          3.7650    -0.3270     1.5650 hc         1 QCG       0.035367
     48 H25         -1.6420    -1.7240    -2.4730 hc         1 QCG       0.064367
     49 H26         -0.7910    -0.1790    -2.4780 hc         1 QCG       0.064367
     50 H24         -0.0740    -1.5490    -3.2850 hc         1 QCG       0.064367
     51 H21          5.0370     3.8330     1.7230 hc         1 QCG       0.035367
     52 H19          4.0540     3.1690     3.0450 hc         1 QCG       0.035367
     53 H20          5.7320     2.6300     2.8280 hc         1 QCG       0.035367
     54 H23         -1.0370    -4.3030    -1.9520 hc         1 QCG       0.055700
     55 H22          0.2690    -3.7630    -3.0010 hc         1 QCG       0.055700
     56 H28         -0.2510    -5.9340     0.0640 h1         1 QCG       0.047200
     57 H27          1.3110    -6.7710    -0.1200 h1         1 QCG       0.047200
     58 H30          0.3280    -6.2510    -2.3720 hc         1 QCG       0.052200
     59 H29          1.8320    -5.3610    -2.1240 hc         1 QCG       0.052200
     60 H1           2.6300     0.4920    -0.1490 h1         1 QCG       0.039700
     61 H3           2.0290     4.3200    -0.9100 hc         1 QCG       0.069033
     62 H4           0.7390     5.3030    -0.2520 hc         1 QCG       0.069033
     63 H2           1.8220     4.4640     0.8500 hc         1 QCG       0.069033
     64 H5           1.3470    -0.4410     1.8100 ha         1 QCG       0.137000
     65 C22          4.3340     1.7900     1.3670 c3         1 QCG       0.207000
     66 C8           1.2950     4.3690    -0.1050 c3         1 QCG      -0.154400
@<TRIPOS>BOND
     1     1    12 ar  
     2     1    13 1   
     3     1    24 ar  
     4     2     3 ar  
     5     2     6 ar  
     6     2    36 1   
     7     3     4 ar  
     8     3    37 1   
     9     4     8 ar  
    10     4    16 1   
    11     5    14 2   
    12     5    16 1   
    13     5    38 1   
    14     6     7 ar  
    15     6    39 1   
    16     7     8 ar  
    17     7    40 1   
    18     8    41 1   
    19     9    42 1   
    20     9    43 1   
    21     9    44 1   
    22     9    65 1   
    23    10    45 1   
    24    10    46 1   
    25    10    47 1   
    26    10    65 1   
    27    11    12 ar  
    28    11    15 ar  
    29    11    35 1   
    30    12    19 1   
    31    13    48 1   
    32    13    49 1   
    33    13    50 1   
    34    14    29 1   
    35    14    30 1   
    36    15    27 ar  
    37    15    28 1   
    38    16    31 2   
    39    17    22 1   
    40    17    30 2   
    41    17    66 1   
    42    18    51 1   
    43    18    52 1   
    44    18    53 1   
    45    18    65 1   
    46    19    21 1   
    47    19    54 1   
    48    19    55 1   
    49    20    21 1   
    50    20    35 1   
    51    20    56 1   
    52    20    57 1   
    53    21    58 1   
    54    21    59 1   
    55    22    23 2   
    56    22    25 1   
    57    23    24 1   
    58    23    29 1   
    59    24    27 ar  
    60    25    26 1   
    61    25    32 1   
    62    25    60 1   
    63    26    33 1   
    64    26    34 1   
    65    27    64 1   
    66    29    31 1   
    67    32    65 1   
    68    61    66 1   
    69    62    66 1   
    70    63    66 1   
@<TRIPOS>SUBSTRUCTURE
     1 QCG         1 TEMP              0 ****  ****    0 ROOT
