@<TRIPOS>MOLECULE
QCH
   72    75     1     0     0
SMALL
abcg2


@<TRIPOS>ATOM
      1 C1          -5.3570    -2.9530     2.3460 ca         1 QCH      -0.130000
      2 C2          -4.7000    -4.1600     2.1620 ca         1 QCH      -0.119000
      3 C3          -5.1430    -1.9140     1.4510 ca         1 QCH      -0.095000
      4 C4          -3.8130    -4.3030     1.1020 ca         1 QCH      -0.122000
      5 C5           2.1320    -2.6830    -1.2720 ca         1 QCH      -0.132000
      6 C6           3.3280    -2.0640    -0.9430 ca         1 QCH      -0.150000
      7 C7          -4.2740    -2.0680     0.3730 ca         1 QCH      -0.093600
      8 C8           0.9190    -0.6490    -0.8560 ca         1 QCH      -0.090600
      9 C9          -3.5800    -3.2690     0.2030 ca         1 QCH      -0.022300
     10 C10          0.9240    -1.9930    -1.2320 ca         1 QCH      -0.098300
     11 C11          3.3300    -0.7280    -0.5700 ca         1 QCH       0.060100
     12 C12          2.1220    -0.0260    -0.5370 ca         1 QCH       0.059100
     13 C13         -3.6160     5.4020     0.7360 c6         1 QCH      -0.073400
     14 C14         -3.5850     4.2060     1.6820 c6         1 QCH      -0.069400
     15 C15         -4.2710    -0.9750    -0.6580 c          1 QCH       0.620700
     16 C17          8.2070     1.7010     1.2550 c          1 QCH       0.717000
     17 C19         -4.2620     3.8700    -1.1520 c6         1 QCH      -0.076400
     18 C20         -3.2510     2.9150     0.9410 c6         1 QCH      -0.076400
     19 C21          3.3480     1.9420    -0.2640 c6         1 QCH       0.116600
     20 C22         -4.2180     2.6600    -0.2170 c6         1 QCH      -0.062700
     21 C24         -2.5160    -3.4240    -0.8520 c3         1 QCH       0.204100
     22 C25         -0.3560    -2.7080    -1.5740 c3         1 QCH       0.230100
     23 C26         -0.6870    -3.3650     0.7120 c3         1 QCH       0.152100
     24 C28         -3.8660     1.4180    -1.0320 c3         1 QCH       0.086000
     25 C29          5.7670     1.7800     0.4090 c3         1 QCH      -0.047400
     26 N30         -3.8370     0.2140    -0.2290 ns         1 QCH      -0.458900
     27 N31         -1.2840    -2.7600    -0.4570 n3         1 QCH      -0.680600
     28 O32         -0.7460     0.5270     0.3250 o          1 QCH      -0.728500
     29 O33          8.3450     2.7980     0.6800 o          1 QCH      -0.751500
     30 O34         -4.7600    -1.1810    -1.7640 o          1 QCH      -0.645100
     31 O35         -0.8510     0.4510    -1.9130 o          1 QCH      -0.728500
     32 O36          9.0800     1.0930     1.9100 o          1 QCH      -0.751500
     33 O37          2.0900     1.2950    -0.2150 os         1 QCH      -0.308100
     34 O38          4.5110    -0.1450    -0.2480 os         1 QCH      -0.338100
     35 C18         -4.5890     5.1620    -0.4130 c6         1 QCH      -0.069400
     36 C23          4.4090     1.1090     0.4240 c6         1 QCH       0.126300
     37 H1          -6.0420    -2.8220     3.1730 ha         1 QCH       0.096000
     38 H2          -4.8650    -4.9830     2.8440 ha         1 QCH       0.094000
     39 H3          -5.6730    -0.9780     1.5790 ha         1 QCH       0.114000
     40 H4          -3.2790    -5.2380     0.9760 ha         1 QCH       0.103000
     41 H5           2.1380    -3.7310    -1.5480 ha         1 QCH       0.081000
     42 H6           4.2620    -2.6110    -0.9710 ha         1 QCH       0.106000
     43 H241        -2.3580    -4.4990    -1.0470 h1         1 QCH       0.037700
     44 H242        -2.8520    -2.9830    -1.7920 h1         1 QCH       0.037700
     45 H251        -0.8580    -2.1950    -2.3970 h1         1 QCH       0.030700
     46 H252        -0.1020    -3.7200    -1.9370 h1         1 QCH       0.030700
     47 H131        -3.8860     6.3110     1.2790 hc         1 QCH       0.030700
     48 H132        -2.6120     5.5680     0.3310 hc         1 QCH       0.030700
     49 H141        -2.8590     4.3740     2.4810 hc         1 QCH       0.023450
     50 H142        -4.5620     4.1040     2.1670 hc         1 QCH       0.023450
     51 H181        -5.6090     5.1060    -0.0180 hc         1 QCH       0.023450
     52 H182        -4.5730     6.0060    -1.1080 hc         1 QCH       0.023450
     53 H201        -2.2290     2.9560     0.5530 hc         1 QCH       0.055450
     54 H202        -3.2720     2.0800     1.6470 hc         1 QCH       0.055450
     55 H30         -3.1700     0.2040     0.5290 hn         1 QCH       0.351500
     56 H271         6.9920     0.0240     0.6960 hc         1 QCH       0.025200
     57 H272         6.4880     0.7870     2.1750 hc         1 QCH       0.025200
     58 H191        -3.2890     3.9730    -1.6480 hc         1 QCH       0.055450
     59 H192        -4.9960     3.6960    -1.9450 hc         1 QCH       0.055450
     60 H22         -5.2230     2.5210     0.2040 hc         1 QCH       0.023700
     61 H211         3.6400     2.1350    -1.3040 h1         1 QCH       0.051200
     62 H212         3.2290     2.9010     0.2400 h1         1 QCH       0.051200
     63 H23          4.0970     0.9290     1.4630 h1         1 QCH       0.048700
     64 H281        -4.6160     1.2850    -1.8120 h1         1 QCH       0.075700
     65 H282        -2.8950     1.5410    -1.5180 h1         1 QCH       0.075700
     66 H261        -0.3830    -4.4130     0.5530 h1         1 QCH       0.025700
     67 H262         0.1960    -2.8050     1.0140 h1         1 QCH       0.025700
     68 H263        -1.3810    -3.3470     1.5500 h1         1 QCH       0.025700
     69 H291         5.6450     2.7660     0.8650 hc         1 QCH       0.046200
     70 H292         6.0720     1.9590    -0.6260 hc         1 QCH       0.046200
     71 C27          6.8370     1.0040     1.1590 c3         1 QCH      -0.203400
     72 C16         -0.3600     0.1800    -0.8020 c          1 QCH       0.745600
@<TRIPOS>BOND
     1     1     2 ar  
     2     1     3 ar  
     3     1    37 1   
     4     2     4 ar  
     5     2    38 1   
     6     3     7 ar  
     7     3    39 1   
     8     4     9 ar  
     9     4    40 1   
    10     5     6 ar  
    11     5    10 ar  
    12     5    41 1   
    13     6    11 ar  
    14     6    42 1   
    15     7     9 ar  
    16     7    15 1   
    17     8    10 ar  
    18     8    12 ar  
    19     8    72 1   
    20     9    21 1   
    21    10    22 1   
    22    11    12 ar  
    23    11    34 1   
    24    12    33 1   
    25    13    14 1   
    26    13    35 1   
    27    13    47 1   
    28    13    48 1   
    29    14    18 1   
    30    14    49 1   
    31    14    50 1   
    32    15    26 1   
    33    15    30 2   
    34    16    29 1   
    35    16    32 1   
    36    16    71 1   
    37    17    20 1   
    38    17    35 1   
    39    17    58 1   
    40    17    59 1   
    41    18    20 1   
    42    18    53 1   
    43    18    54 1   
    44    19    33 1   
    45    19    36 1   
    46    19    61 1   
    47    19    62 1   
    48    20    24 1   
    49    20    60 1   
    50    21    27 1   
    51    21    43 1   
    52    21    44 1   
    53    22    27 1   
    54    22    45 1   
    55    22    46 1   
    56    23    27 1   
    57    23    66 1   
    58    23    67 1   
    59    23    68 1   
    60    24    26 1   
    61    24    64 1   
    62    24    65 1   
    63    25    36 1   
    64    25    69 1   
    65    25    70 1   
    66    25    71 1   
    67    26    55 1   
    68    28    72 1   
    69    31    72 1   
    70    34    36 1   
    71    35    51 1   
    72    35    52 1   
    73    36    63 1   
    74    56    71 1   
    75    57    71 1   
@<TRIPOS>SUBSTRUCTURE
     1 QCH         1 TEMP              0 ****  ****    0 ROOT
