@<TRIPOS>MOLECULE
QCH
   72    75     1     0     0
SMALL
No Charge or Current Charge


@<TRIPOS>ATOM
      1 C1          -5.8120    -3.1900     1.9210 ca         1 QCH      -0.130000
      2 C2          -5.0610    -4.3670     1.8280 ca         1 QCH      -0.119000
      3 C3          -5.5240    -2.1060     1.0780 ca         1 QCH      -0.095000
      4 C4          -4.0170    -4.4560     0.8970 ca         1 QCH      -0.122000
      5 C5           2.1530    -2.8030    -0.5750 ca         1 QCH      -0.132000
      6 C6           3.3430    -2.1510    -0.2180 ca         1 QCH      -0.150000
      7 C7          -4.4790    -2.1800     0.1240 ca         1 QCH      -0.093600
      8 C8           1.1840    -0.6780    -1.3060 ca         1 QCH      -0.090600
      9 C9          -3.7100    -3.3750     0.0420 ca         1 QCH      -0.022300
     10 C10          1.0650    -2.0810    -1.1100 ca         1 QCH      -0.098300
     11 C11          3.4620    -0.7670    -0.3980 ca         1 QCH       0.060100
     12 C12          2.3900    -0.0290    -0.9610 ca         1 QCH       0.059100
     13 C13         -3.4770     5.3340     1.2370 c6         1 QCH      -0.073400
     14 C14         -3.4660     4.0190     2.0530 c6         1 QCH      -0.069400
     15 C15         -4.2290    -0.9910    -0.7840 c          1 QCH       0.620700
     16 C17          8.2940     1.9230     1.4080 c          1 QCH       0.717000
     17 C19         -4.4340     4.0740    -0.7700 c6         1 QCH      -0.076400
     18 C20         -3.3180     2.7840     1.1300 c6         1 QCH      -0.076400
     19 C21          3.8590     1.8860    -1.1350 c6         1 QCH       0.116600
     20 C22         -4.4310     2.7480     0.0410 c6         1 QCH      -0.062700
     21 C24         -2.5010    -3.5250    -0.8930 c3         1 QCH       0.204100
     22 C25         -0.2160    -2.8420    -1.4740 c3         1 QCH       0.230100
     23 C26         -0.8350    -3.1760     0.9030 c3         1 QCH       0.152100
     24 C28         -4.2920     1.5200    -0.9040 c3         1 QCH       0.086000
     25 C29          6.0980     1.7930     0.1530 c3         1 QCH      -0.047400
     26 N30         -4.4320     0.2410    -0.2040 ns         1 QCH      -0.458900
     27 N31         -1.2920    -2.7800    -0.4520 n3         1 QCH      -0.680600
     28 O32         -0.5720     0.8800    -1.1700 o          1 QCH      -0.728500
     29 O33          9.1880     1.3210     0.8330 o          1 QCH      -0.751500
     30 O34         -3.9690    -1.0930    -1.9760 o          1 QCH      -0.645100
     31 O35         -0.1230     0.0510    -3.1110 o          1 QCH      -0.728500
     32 O36          8.4480     3.0090     1.9440 o          1 QCH      -0.751500
     33 O37          2.5290     1.3290    -1.1870 os         1 QCH      -0.308100
     34 O38          4.6360    -0.1430    -0.0260 os         1 QCH      -0.338100
     35 C18         -4.5830     5.3080     0.1550 c6         1 QCH      -0.069400
     36 C23          4.6260     1.2980     0.0730 c6         1 QCH       0.126300
     37 H1          -6.6230    -3.1180     2.6420 ha         1 QCH       0.096000
     38 H2          -5.2820    -5.2080     2.4820 ha         1 QCH       0.094000
     39 H3          -6.1430    -1.2140     1.1550 ha         1 QCH       0.114000
     40 H4          -3.4290    -5.3700     0.8490 ha         1 QCH       0.103000
     41 H5           2.0710    -3.8770    -0.4260 ha         1 QCH       0.081000
     42 H6           4.1700    -2.7170     0.2040 ha         1 QCH       0.106000
     43 H241        -2.2550    -4.5930    -0.9710 h1         1 QCH       0.037700
     44 H242        -2.7890    -3.2220    -1.9070 h1         1 QCH       0.037700
     45 H251        -0.5940    -2.4610    -2.4310 h1         1 QCH       0.030700
     46 H252         0.0510    -3.8930    -1.6530 h1         1 QCH       0.030700
     47 H131        -3.6320     6.1890     1.9080 hc         1 QCH       0.030700
     48 H132        -2.4980     5.4820     0.7610 hc         1 QCH       0.030700
     49 H141        -2.6440     4.0400     2.7810 hc         1 QCH       0.023450
     50 H142        -4.3950     3.9370     2.6340 hc         1 QCH       0.023450
     51 H181        -5.5710     5.2920     0.6360 hc         1 QCH       0.023450
     52 H182        -4.5410     6.2290    -0.4420 hc         1 QCH       0.023450
     53 H201        -2.3290     2.8010     0.6500 hc         1 QCH       0.055450
     54 H202        -3.3480     1.8720     1.7410 hc         1 QCH       0.055450
     55 H30         -4.6500     0.2470     0.7840 hn         1 QCH       0.351500
     56 H271         6.9430     0.2180     1.3210 hc         1 QCH       0.025200
     57 H272         6.3110     1.6590     2.2690 hc         1 QCH       0.025200
     58 H191        -3.5040     4.1600    -1.3490 hc         1 QCH       0.055450
     59 H192        -5.2550     4.0660    -1.5010 hc         1 QCH       0.055450
     60 H22         -5.4060     2.6480     0.5380 hc         1 QCH       0.023700
     61 H211         4.3860     1.6340    -2.0670 h1         1 QCH       0.051200
     62 H212         3.7900     2.9800    -1.0590 h1         1 QCH       0.051200
     63 H23          4.1020     1.5830     0.9960 h1         1 QCH       0.048700
     64 H281        -5.0650     1.5770    -1.6820 h1         1 QCH       0.075700
     65 H282        -3.3110     1.5530    -1.3980 h1         1 QCH       0.075700
     66 H261        -0.5030    -4.2230     0.9120 h1         1 QCH       0.025700
     67 H262        -0.0020    -2.5460     1.2390 h1         1 QCH       0.025700
     68 H263        -1.6400    -3.0630     1.6400 h1         1 QCH       0.025700
     69 H291         6.1030     2.8910     0.1480 hc         1 QCH       0.046200
     70 H292         6.6400     1.4850    -0.7500 hc         1 QCH       0.046200
     71 C27          6.8830     1.3100     1.4010 c3         1 QCH      -0.203400
     72 C16          0.0590     0.1290    -1.9020 c          1 QCH       0.745600
@<TRIPOS>BOND
     1     1     2 ar  
     2     1     3 ar  
     3     1    37 1   
     4     2     4 ar  
     5     2    38 1   
     6     3     7 ar  
     7     3    39 1   
     8     4     9 ar  
     9     4    40 1   
    10     5     6 ar  
    11     5    10 ar  
    12     5    41 1   
    13     6    11 ar  
    14     6    42 1   
    15     7     9 ar  
    16     7    15 1   
    17     8    10 ar  
    18     8    12 ar  
    19     8    72 1   
    20     9    21 1   
    21    10    22 1   
    22    11    12 ar  
    23    11    34 1   
    24    12    33 1   
    25    13    14 1   
    26    13    35 1   
    27    13    47 1   
    28    13    48 1   
    29    14    18 1   
    30    14    49 1   
    31    14    50 1   
    32    15    26 1   
    33    15    30 2   
    34    16    29 1   
    35    16    32 1   
    36    16    71 1   
    37    17    20 1   
    38    17    35 1   
    39    17    58 1   
    40    17    59 1   
    41    18    20 1   
    42    18    53 1   
    43    18    54 1   
    44    19    33 1   
    45    19    36 1   
    46    19    61 1   
    47    19    62 1   
    48    20    24 1   
    49    20    60 1   
    50    21    27 1   
    51    21    43 1   
    52    21    44 1   
    53    22    27 1   
    54    22    45 1   
    55    22    46 1   
    56    23    27 1   
    57    23    66 1   
    58    23    67 1   
    59    23    68 1   
    60    24    26 1   
    61    24    64 1   
    62    24    65 1   
    63    25    36 1   
    64    25    69 1   
    65    25    70 1   
    66    25    71 1   
    67    26    55 1   
    68    28    72 1   
    69    31    72 1   
    70    34    36 1   
    71    35    51 1   
    72    35    52 1   
    73    36    63 1   
    74    56    71 1   
    75    57    71 1   
@<TRIPOS>SUBSTRUCTURE
     1 QCH         1 TEMP              0 ****  ****    0 ROOT
