@<TRIPOS>MOLECULE
QCI
   17    17     1     0     0
SMALL
No Charge or Current Charge


@<TRIPOS>ATOM
      1 NE2         22.4400    12.8550    25.9290 ns         1 QCI      -0.481500
      2 C           22.8670    14.0560    26.4270 c          1 QCI       0.575000
      3 CA          24.1930    14.0590    27.2850 c6         1 QCI       0.091500
      4 CB          24.6630    12.6350    27.6820 c6         1 QCI      -0.070400
      5 CG          24.5050    11.6370    26.5100 c6         1 QCI      -0.162400
      6 CD          23.1090    11.6670    25.8800 c          1 QCI       0.574000
      7 O           22.2250    15.0750    26.2110 o          1 QCI      -0.514000
      8 OE1         22.5890    10.6730    25.4030 o          1 QCI      -0.517000
      9 N           24.1100    14.9290    28.5070 n8         1 QCI      -0.993200
     10 HE21        21.5440    12.8690    25.4660 hn         1 QCI       0.332500
     11 HA          24.9580    14.4940    26.6230 h1         1 QCI       0.038700
     12 HB3         24.0650    12.2760    28.5320 hc         1 QCI       0.067700
     13 HB2         25.7070    12.6580    28.0230 hc         1 QCI       0.067700
     14 HG3         24.7790    10.6070    26.7750 hc         1 QCI       0.080700
     15 HG2         25.1950    11.9650    25.7210 hc         1 QCI       0.080700
     16 H           25.0500    15.0470    28.9060 hn         1 QCI       0.415000
     17 H2          23.8520    15.8830    28.2190 hn         1 QCI       0.415000
@<TRIPOS>BOND
     1     1     2 1   
     2     1     6 1   
     3     1    10 1   
     4     2     3 1   
     5     2     7 2   
     6     3     4 1   
     7     3     9 1   
     8     3    11 1   
     9     4     5 1   
    10     4    12 1   
    11     4    13 1   
    12     5     6 1   
    13     5    14 1   
    14     5    15 1   
    15     6     8 2   
    16     9    16 1   
    17     9    17 1   
@<TRIPOS>SUBSTRUCTURE
     1 QCI         1 TEMP              0 ****  ****    0 ROOT
