@<TRIPOS>MOLECULE
QCI
   17    17     1     0     0
SMALL
abcg2


@<TRIPOS>ATOM
      1 NE2         22.4910    12.8900    25.9190 ns         1 QCI      -0.481500
      2 C           22.8340    14.0300    26.6220 c          1 QCI       0.575000
      3 CA          24.2030    14.0290    27.2770 c6         1 QCI       0.091500
      4 CB          24.5800    12.6210    27.7280 c6         1 QCI      -0.070400
      5 CG          24.5210    11.6590    26.5480 c6         1 QCI      -0.162400
      6 CD          23.2050    11.7070    25.8170 c          1 QCI       0.574000
      7 O           22.0710    14.9760    26.6660 o          1 QCI      -0.514000
      8 OE1         22.7640    10.7880    25.1530 o          1 QCI      -0.517000
      9 N           24.2130    14.9720    28.3870 n8         1 QCI      -0.993200
     10 HE21        21.6000    12.9170    25.4350 hn         1 QCI       0.332500
     11 HA          24.8930    14.3180    26.4660 h1         1 QCI       0.038700
     12 HB3         23.8950    12.3030    28.5170 hc         1 QCI       0.067700
     13 HB2         25.5860    12.6340    28.1480 hc         1 QCI       0.067700
     14 HG3         24.6920    10.6260    26.8480 hc         1 QCI       0.080700
     15 HG2         25.2930    11.9140    25.8140 hc         1 QCI       0.080700
     16 H           25.1720    15.1390    28.6730 hn         1 QCI       0.415000
     17 H2          23.8360    15.8630    28.0800 hn         1 QCI       0.415000
@<TRIPOS>BOND
     1     1     2 1   
     2     1     6 1   
     3     1    10 1   
     4     2     3 1   
     5     2     7 2   
     6     3     4 1   
     7     3     9 1   
     8     3    11 1   
     9     4     5 1   
    10     4    12 1   
    11     4    13 1   
    12     5     6 1   
    13     5    14 1   
    14     5    15 1   
    15     6     8 2   
    16     9    16 1   
    17     9    17 1   
@<TRIPOS>SUBSTRUCTURE
     1 QCI         1 TEMP              0 ****  ****    0 ROOT
