@<TRIPOS>MOLECULE
QCL
   40    41     1     0     0
SMALL
No Charge or Current Charge


@<TRIPOS>ATOM
      1 CZ1         60.4220    23.1400    51.4620 c3         1 QCL      -0.090100
      2 CE1         60.7410    22.9560    49.9610 c3         1 QCL      -0.071400
      3 CD          60.9840    21.4880    49.5030 c3         1 QCL      -0.064700
      4 CE2         62.2610    20.8850    50.1630 c3         1 QCL      -0.071400
      5 CZ2         62.7420    19.5390    49.5780 c3         1 QCL      -0.090100
      6 CG          59.7090    20.6210    49.6970 c3         1 QCL       0.166600
      7 OB          59.7840    19.4860    48.8180 os         1 QCL      -0.347100
      8 C8          58.8090    18.5050    48.7800 ca         1 QCL       0.181100
      9 C9          57.6440    18.5860    49.5620 ca         1 QCL      -0.226000
     10 C10         56.6820    17.5620    49.4860 ca         1 QCL       0.280500
     11 C           55.4130    17.6330    50.3240 c          1 QCL       0.480400
     12 O           55.1390    18.5490    51.1000 o          1 QCL      -0.516100
     13 N11         56.8550    16.4890    48.6700 nb         1 QCL      -0.670000
     14 C7          57.9800    16.3860    47.9020 ca         1 QCL       0.226000
     15 C6          58.9840    17.3900    47.9340 ca         1 QCL      -0.043000
     16 C5          60.1400    17.2690    47.1290 ca         1 QCL      -0.136000
     17 C4          60.3100    16.1610    46.2880 ca         1 QCL      -0.056000
     18 C3          59.3290    15.1610    46.2440 ca         1 QCL      -0.205000
     19 C2          58.1770    15.2590    47.0370 ca         1 QCL       0.341000
     20 N           57.2480    14.2380    46.9460 nv         1 QCL      -1.084000
     21 H1          60.2400    24.1990    51.6800 hc         1 QCL       0.035367
     22 H2          59.5250    22.5790    51.7500 hc         1 QCL       0.035367
     23 H3          61.2570    22.8090    52.0890 hc         1 QCL       0.035367
     24 H4          61.6240    23.5590    49.7130 hc         1 QCL       0.040950
     25 H5          59.9140    23.3780    49.3750 hc         1 QCL       0.040950
     26 H6          61.1720    21.5410    48.4220 hc         1 QCL       0.063700
     27 H7          62.0960    20.7540    51.2400 hc         1 QCL       0.040950
     28 H8          63.0820    21.6060    50.0610 hc         1 QCL       0.040950
     29 H9          63.7200    19.2730    49.9960 hc         1 QCL       0.035367
     30 H10         62.0460    18.7290    49.8210 hc         1 QCL       0.035367
     31 H11         62.8430    19.6010    48.4880 hc         1 QCL       0.035367
     32 H12         58.8220    21.2200    49.4520 h1         1 QCL       0.044700
     33 H13         59.6340    20.3040    50.7450 h1         1 QCL       0.044700
     34 H14         57.4650    19.4250    50.2260 ha         1 QCL       0.143000
     35 H15         54.7130    16.7780    50.1970 h4         1 QCL       0.011200
     36 H16         60.9130    18.0340    47.1490 ha         1 QCL       0.131000
     37 H17         61.2040    16.0770    45.6720 ha         1 QCL       0.112000
     38 H18         59.4710    14.3040    45.5900 ha         1 QCL       0.116000
     39 H19         56.3470    14.3920    47.3980 hn         1 QCL       0.476500
     40 H20         57.2650    13.6110    46.1460 hn         1 QCL       0.476500
@<TRIPOS>BOND
     1     1     2 1   
     2     1    21 1   
     3     1    22 1   
     4     1    23 1   
     5     2     3 1   
     6     2    24 1   
     7     2    25 1   
     8     3     4 1   
     9     3     6 1   
    10     3    26 1   
    11     4     5 1   
    12     4    27 1   
    13     4    28 1   
    14     5    29 1   
    15     5    30 1   
    16     5    31 1   
    17     6     7 1   
    18     6    32 1   
    19     6    33 1   
    20     7     8 1   
    21     8     9 ar  
    22     8    15 ar  
    23     9    10 ar  
    24     9    34 1   
    25    10    11 1   
    26    10    13 ar  
    27    11    12 2   
    28    11    35 1   
    29    13    14 ar  
    30    14    15 ar  
    31    14    19 ar  
    32    15    16 ar  
    33    16    17 ar  
    34    16    36 1   
    35    17    18 ar  
    36    17    37 1   
    37    18    19 ar  
    38    18    38 1   
    39    19    20 1   
    40    20    39 1   
    41    20    40 1   
@<TRIPOS>SUBSTRUCTURE
     1 QCL         1 TEMP              0 ****  ****    0 ROOT
