@<TRIPOS>MOLECULE
QCL
   40    41     1     0     0
SMALL
abcg2


@<TRIPOS>ATOM
      1 CZ1         60.3230    23.0890    51.3820 c3         1 QCL      -0.090100
      2 CE1         60.7500    22.9110    49.9240 c3         1 QCL      -0.071400
      3 CD          61.0080    21.4580    49.4840 c3         1 QCL      -0.064700
      4 CE2         62.2140    20.8480    50.2140 c3         1 QCL      -0.071400
      5 CZ2         62.6690    19.4810    49.7040 c3         1 QCL      -0.090100
      6 CG          59.7370    20.6310    49.6300 c3         1 QCL       0.166600
      7 OB          59.8020    19.5220    48.7130 os         1 QCL      -0.347100
      8 C8          58.8480    18.5850    48.7560 ca         1 QCL       0.181100
      9 C9          57.7340    18.6280    49.5640 ca         1 QCL      -0.226000
     10 C10         56.8120    17.5660    49.4910 ca         1 QCL       0.280500
     11 C           55.5970    17.5600    50.3340 c          1 QCL       0.480400
     12 O           55.3080    18.4240    51.1370 o          1 QCL      -0.516100
     13 N11         56.9420    16.5170    48.6980 nb         1 QCL      -0.670000
     14 C7          58.0330    16.4540    47.9040 ca         1 QCL       0.226000
     15 C6          59.0360    17.4680    47.8830 ca         1 QCL      -0.043000
     16 C5          60.1490    17.3460    47.0320 ca         1 QCL      -0.136000
     17 C4          60.2510    16.2370    46.2180 ca         1 QCL      -0.056000
     18 C3          59.2800    15.2280    46.2190 ca         1 QCL      -0.205000
     19 C2          58.1720    15.3070    47.0510 ca         1 QCL       0.341000
     20 N           57.2320    14.3160    47.1190 nv         1 QCL      -1.084000
     21 H1          60.1590    24.1460    51.6040 hc         1 QCL       0.035367
     22 H2          59.3920    22.5600    51.5980 hc         1 QCL       0.035367
     23 H3          61.0830    22.7210    52.0740 hc         1 QCL       0.035367
     24 H4          61.6610    23.4870    49.7420 hc         1 QCL       0.040950
     25 H5          59.9790    23.3350    49.2730 hc         1 QCL       0.040950
     26 H6          61.2400    21.4880    48.4130 hc         1 QCL       0.063700
     27 H7          61.9850    20.7720    51.2810 hc         1 QCL       0.040950
     28 H8          63.0460    21.5540    50.1280 hc         1 QCL       0.040950
     29 H9          63.5870    19.1730    50.2090 hc         1 QCL       0.035367
     30 H10         61.9160    18.7120    49.8810 hc         1 QCL       0.035367
     31 H11         62.8670    19.5070    48.6300 hc         1 QCL       0.035367
     32 H12         58.8520    21.2270    49.3870 h1         1 QCL       0.044700
     33 H13         59.6260    20.2440    50.6450 h1         1 QCL       0.044700
     34 H14         57.5390    19.4430    50.2430 ha         1 QCL       0.143000
     35 H15         54.9520    16.6770    50.1750 h4         1 QCL       0.011200
     36 H16         60.9060    18.1150    47.0250 ha         1 QCL       0.131000
     37 H17         61.1030    16.1370    45.5560 ha         1 QCL       0.112000
     38 H18         59.3910    14.3700    45.5680 ha         1 QCL       0.116000
     39 H19         56.3580    14.5590    47.5610 hn         1 QCL       0.476500
     40 H20         57.1680    13.6750    46.3440 hn         1 QCL       0.476500
@<TRIPOS>BOND
     1     1     2 1   
     2     1    21 1   
     3     1    22 1   
     4     1    23 1   
     5     2     3 1   
     6     2    24 1   
     7     2    25 1   
     8     3     4 1   
     9     3     6 1   
    10     3    26 1   
    11     4     5 1   
    12     4    27 1   
    13     4    28 1   
    14     5    29 1   
    15     5    30 1   
    16     5    31 1   
    17     6     7 1   
    18     6    32 1   
    19     6    33 1   
    20     7     8 1   
    21     8     9 ar  
    22     8    15 ar  
    23     9    10 ar  
    24     9    34 1   
    25    10    11 1   
    26    10    13 ar  
    27    11    12 2   
    28    11    35 1   
    29    13    14 ar  
    30    14    15 ar  
    31    14    19 ar  
    32    15    16 ar  
    33    16    17 ar  
    34    16    36 1   
    35    17    18 ar  
    36    17    37 1   
    37    18    19 ar  
    38    18    38 1   
    39    19    20 1   
    40    20    39 1   
    41    20    40 1   
@<TRIPOS>SUBSTRUCTURE
     1 QCL         1 TEMP              0 ****  ****    0 ROOT
