@<TRIPOS>MOLECULE
QCM
   58    60     1     0     0
SMALL
No Charge or Current Charge


@<TRIPOS>ATOM
      1 C02          8.8530    -0.8470    -0.7380 c          1 QCM       0.612700
      2 C03          7.3820    -0.5800    -0.4850 ca         1 QCM      -0.192600
      3 C04          6.4180    -1.4740    -0.9990 ca         1 QCM      -0.038000
      4 C05          5.0470    -1.2550    -0.7820 ca         1 QCM      -0.167000
      5 C06          4.6020    -0.1430    -0.0480 ca         1 QCM       0.024000
      6 C08          2.4510     0.9750     0.7820 c          1 QCM       0.648100
      7 C10          0.1690     1.5390     1.2690 c3         1 QCM       0.232900
      8 C11         -1.2240     0.9880     1.0000 ca         1 QCM      -0.103300
      9 C12         -1.9110     1.3410    -0.1780 ca         1 QCM      -0.070000
     10 C13         -3.2000     0.8330    -0.4310 ca         1 QCM      -0.045000
     11 C14         -3.8080    -0.0360     0.5000 ca         1 QCM      -0.028000
     12 C15         -5.0970    -0.5430     0.2480 ca         1 QCM      -0.082000
     13 C16         -5.7850    -0.1880    -0.9290 ca         1 QCM      -0.078300
     14 C17         -7.1840    -0.7420    -1.1920 c3         1 QCM       0.213100
     15 C19         -8.3360     1.1380    -0.0790 c3         1 QCM       0.167800
     16 C20         -9.1560     1.6450     1.1260 c3         1 QCM      -0.089600
     17 C21         -9.4990    -1.0440    -0.3400 c3         1 QCM       0.167800
     18 C22         -9.4370    -2.5820    -0.2280 c3         1 QCM      -0.089600
     19 C23         -5.1720     0.6790    -1.8540 ca         1 QCM      -0.108000
     20 C24         -3.8860     1.1880    -1.6070 ca         1 QCM      -0.097000
     21 C25         -3.1220    -0.3910     1.6760 ca         1 QCM      -0.098000
     22 C26         -1.8360     0.1180     1.9240 ca         1 QCM      -0.090000
     23 C28          5.5590     0.7510     0.4720 ca         1 QCM      -0.167000
     24 C29          6.9330     0.5370     0.2580 ca         1 QCM      -0.038000
     25 N07          3.2010     0.0140     0.1320 ns         1 QCM      -0.139000
     26 N18         -8.1950    -0.3430    -0.1710 n3         1 QCM      -0.727600
     27 N30          9.7530     0.1040    -0.2640 ns         1 QCM      -0.372400
     28 O01          9.2370    -1.8560    -1.3180 o          1 QCM      -0.561100
     29 O09          1.1270     0.6580     0.6580 os         1 QCM      -0.457100
     30 O27          2.8780     1.9560     1.3760 o          1 QCM      -0.521000
     31 O31         11.1480     0.0770    -0.6580 oh         1 QCM      -0.437100
     32 H041         6.7260    -2.3460    -1.5740 ha         1 QCM       0.127000
     33 H051         4.3260    -1.9600    -1.1920 ha         1 QCM       0.135500
     34 H101         0.2500     2.5520     0.8530 h1         1 QCM       0.059200
     35 H102         0.3360     1.6050     2.3530 h1         1 QCM       0.059200
     36 H121        -1.4410     2.0080    -0.8970 ha         1 QCM       0.114000
     37 H151        -5.5710    -1.2090     0.9650 ha         1 QCM       0.135000
     38 H171        -7.5180    -0.4240    -2.1900 h1         1 QCM       0.040200
     39 H172        -7.0840    -1.8340    -1.2270 h1         1 QCM       0.040200
     40 H191        -8.7870     1.5310    -1.0010 h1         1 QCM       0.031450
     41 H192        -7.3440     1.6010     0.0090 h1         1 QCM       0.031450
     42 H201        -8.7840     1.2060     2.0590 hc         1 QCM       0.036867
     43 H202        -9.0710     2.7350     1.2030 hc         1 QCM       0.036867
     44 H203       -10.2200     1.4020     1.0200 hc         1 QCM       0.036867
     45 H211        -9.9460    -0.7800    -1.3080 h1         1 QCM       0.031450
     46 H212       -10.2020    -0.7120     0.4350 h1         1 QCM       0.031450
     47 H221        -8.9180    -2.8820     0.6900 hc         1 QCM       0.036867
     48 H223       -10.4520    -2.9950    -0.1960 hc         1 QCM       0.036867
     49 H222        -8.9250    -3.0280    -1.0870 hc         1 QCM       0.036867
     50 H231        -5.6940     0.9620    -2.7660 ha         1 QCM       0.111000
     51 H241        -3.4250     1.8570    -2.3300 ha         1 QCM       0.114000
     52 H251        -3.5830    -1.0610     2.3990 ha         1 QCM       0.117000
     53 H261        -1.3140    -0.1650     2.8360 ha         1 QCM       0.117000
     54 H281         5.2620     1.6210     1.0490 ha         1 QCM       0.135500
     55 H291         7.6330     1.2520     0.6850 ha         1 QCM       0.127000
     56 H071         2.6440    -0.7130    -0.2960 hn         1 QCM       0.171000
     57 H301         9.4020     0.9990     0.0690 hn         1 QCM       0.328500
     58 H311        11.6330     0.1490     0.1990 ho         1 QCM       0.450000
@<TRIPOS>BOND
     1     1     2 1   
     2     1    27 1   
     3     1    28 2   
     4     2     3 ar  
     5     2    24 ar  
     6     3     4 ar  
     7     3    32 1   
     8     4     5 ar  
     9     4    33 1   
    10     5    23 ar  
    11     5    25 1   
    12     6    25 1   
    13     6    29 1   
    14     6    30 2   
    15     7     8 1   
    16     7    29 1   
    17     7    34 1   
    18     7    35 1   
    19     8     9 ar  
    20     8    22 ar  
    21     9    10 ar  
    22     9    36 1   
    23    10    11 ar  
    24    10    20 ar  
    25    11    12 ar  
    26    11    21 ar  
    27    12    13 ar  
    28    12    37 1   
    29    13    14 1   
    30    13    19 ar  
    31    14    26 1   
    32    14    38 1   
    33    14    39 1   
    34    15    16 1   
    35    15    26 1   
    36    15    40 1   
    37    15    41 1   
    38    16    42 1   
    39    16    43 1   
    40    16    44 1   
    41    17    18 1   
    42    17    26 1   
    43    17    45 1   
    44    17    46 1   
    45    18    47 1   
    46    18    48 1   
    47    18    49 1   
    48    19    20 ar  
    49    19    50 1   
    50    20    51 1   
    51    21    22 ar  
    52    21    52 1   
    53    22    53 1   
    54    23    24 ar  
    55    23    54 1   
    56    24    55 1   
    57    25    56 1   
    58    27    31 1   
    59    27    57 1   
    60    31    58 1   
@<TRIPOS>SUBSTRUCTURE
     1 QCM         1 TEMP              0 ****  ****    0 ROOT
