@<TRIPOS>MOLECULE
QCM
   58    60     1     0     0
SMALL
bcc


@<TRIPOS>ATOM
      1 C02          8.6010    -1.2700     0.1360 c          1 QCM       0.679700
      2 C03          7.1650    -0.8800     0.1280 ca         1 QCM      -0.192600
      3 C04          6.2090    -1.8750    -0.0710 ca         1 QCM      -0.056000
      4 C05          4.8650    -1.5680    -0.0810 ca         1 QCM      -0.185000
      5 C06          4.4260    -0.2560     0.1280 ca         1 QCM       0.116600
      6 C08          2.3690     1.1130     0.2890 c          1 QCM       0.764100
      7 C10          0.1860     2.0020     0.3560 c3         1 QCM       0.209700
      8 C11         -1.2160     1.4930     0.2350 ca         1 QCM      -0.103300
      9 C12         -1.9930     1.8350    -0.8400 ca         1 QCM      -0.088000
     10 C13         -3.3250     1.3740    -0.9570 ca         1 QCM      -0.045000
     11 C14         -3.8600     0.5360     0.0530 ca         1 QCM      -0.028000
     12 C15         -5.1920     0.0800    -0.0590 ca         1 QCM      -0.100000
     13 C16         -5.9800     0.4390    -1.1220 ca         1 QCM      -0.078300
     14 C17         -7.3940    -0.0620    -1.2780 c3         1 QCM       0.213100
     15 C19         -8.3890     0.6990     0.7590 c3         1 QCM       0.167800
     16 C20         -8.5550     0.3910     2.2380 c3         1 QCM      -0.089600
     17 C21         -9.1250    -1.3730    -0.2440 c3         1 QCM       0.167800
     18 C22         -8.6890    -2.7830    -0.6050 c3         1 QCM      -0.089600
     19 C23         -5.4360     1.2760    -2.1250 ca         1 QCM      -0.126000
     20 C24         -4.1480     1.7270    -2.0500 ca         1 QCM      -0.115000
     21 C25         -3.0350     0.1900     1.1520 ca         1 QCM      -0.116000
     22 C26         -1.7540     0.6530     1.2400 ca         1 QCM      -0.108000
     23 C28          5.3750     0.7430     0.3480 ca         1 QCM      -0.185000
     24 C29          6.7240     0.4220     0.3440 ca         1 QCM      -0.056000
     25 N07          3.0510    -0.0500     0.1030 ns         1 QCM      -0.465100
     26 N18         -8.0080    -0.4640    -0.0320 n3         1 QCM      -0.727600
     27 N30          9.4540    -0.2620    -0.1720 ns         1 QCM      -0.439400
     28 O01          8.9710    -2.3940     0.4210 o          1 QCM      -0.561100
     29 O09          1.0620     0.8810     0.1750 os         1 QCM      -0.433900
     30 O27          2.8520     2.1960     0.5200 o          1 QCM      -0.570000
     31 O31         10.7730    -0.5620    -0.3450 oh         1 QCM      -0.398100
     32 H041         6.5170    -2.8990    -0.2310 ha         1 QCM       0.145000
     33 H051         4.1410    -2.3570    -0.2490 ha         1 QCM       0.153500
     34 H101         0.3860     2.7640    -0.4000 h1         1 QCM       0.059200
     35 H102         0.3550     2.4460     1.3400 h1         1 QCM       0.059200
     36 H121        -1.5910     2.4730    -1.6190 ha         1 QCM       0.132000
     37 H151        -5.6040    -0.5530     0.7180 ha         1 QCM       0.153000
     38 H171        -7.9900     0.7050    -1.8020 h1         1 QCM       0.040200
     39 H172        -7.3650    -0.9190    -1.9570 h1         1 QCM       0.040200
     40 H191        -9.3090     1.1630     0.3650 h1         1 QCM       0.031450
     41 H192        -7.6040     1.4510     0.6560 h1         1 QCM       0.031450
     42 H201        -7.6270    -0.0010     2.6570 hc         1 QCM       0.036867
     43 H202        -8.8140     1.2990     2.7830 hc         1 QCM       0.036867
     44 H203        -9.3440    -0.3370     2.4310 hc         1 QCM       0.036867
     45 H211        -9.8190    -0.9840    -1.0070 h1         1 QCM       0.031450
     46 H212        -9.7000    -1.4240     0.6820 h1         1 QCM       0.031450
     47 H221        -8.0490    -3.1990     0.1740 hc         1 QCM       0.036867
     48 H223        -9.5600    -3.4300    -0.7110 hc         1 QCM       0.036867
     49 H222        -8.1410    -2.8240    -1.5470 hc         1 QCM       0.036867
     50 H231        -6.0590     1.5700    -2.9620 ha         1 QCM       0.129000
     51 H241        -3.7490     2.3680    -2.8270 ha         1 QCM       0.132000
     52 H251        -3.4390    -0.4460     1.9310 ha         1 QCM       0.135000
     53 H261        -1.1430     0.3820     2.0930 ha         1 QCM       0.135000
     54 H281         5.0820     1.7620     0.5320 ha         1 QCM       0.153500
     55 H291         7.4290     1.2190     0.5420 ha         1 QCM       0.145000
     56 H071         2.4900    -0.8700    -0.0770 hn         1 QCM       0.337500
     57 H301         9.1460     0.5240    -0.7280 hn         1 QCM       0.328500
     58 H311        11.2210    -0.2450     0.4480 ho         1 QCM       0.411000
@<TRIPOS>BOND
     1     1     2 1   
     2     1    27 1   
     3     1    28 2   
     4     2     3 ar  
     5     2    24 ar  
     6     3     4 ar  
     7     3    32 1   
     8     4     5 ar  
     9     4    33 1   
    10     5    23 ar  
    11     5    25 1   
    12     6    25 1   
    13     6    29 1   
    14     6    30 2   
    15     7     8 1   
    16     7    29 1   
    17     7    34 1   
    18     7    35 1   
    19     8     9 ar  
    20     8    22 ar  
    21     9    10 ar  
    22     9    36 1   
    23    10    11 ar  
    24    10    20 ar  
    25    11    12 ar  
    26    11    21 ar  
    27    12    13 ar  
    28    12    37 1   
    29    13    14 1   
    30    13    19 ar  
    31    14    26 1   
    32    14    38 1   
    33    14    39 1   
    34    15    16 1   
    35    15    26 1   
    36    15    40 1   
    37    15    41 1   
    38    16    42 1   
    39    16    43 1   
    40    16    44 1   
    41    17    18 1   
    42    17    26 1   
    43    17    45 1   
    44    17    46 1   
    45    18    47 1   
    46    18    48 1   
    47    18    49 1   
    48    19    20 ar  
    49    19    50 1   
    50    20    51 1   
    51    21    22 ar  
    52    21    52 1   
    53    22    53 1   
    54    23    24 ar  
    55    23    54 1   
    56    24    55 1   
    57    25    56 1   
    58    27    31 1   
    59    27    57 1   
    60    31    58 1   
@<TRIPOS>SUBSTRUCTURE
     1 QCM         1 TEMP              0 ****  ****    0 ROOT
