@<TRIPOS>MOLECULE
QCN
   35    35     1     0     0
SMALL
No Charge or Current Charge


@<TRIPOS>ATOM
      1 C1         -24.9940    16.0910   -12.7730 c3         1 QCN       0.006300
      2 C2         -23.8720    16.7750   -13.6070 c3         1 QCN      -0.087433
      3 C3         -24.9340    16.5700   -11.2930 c3         1 QCN      -0.087433
      4 C4         -24.6590    14.5690   -12.7540 c3         1 QCN      -0.087433
      5 N          -30.1330    13.6770   -12.6540 n8         1 QCN      -0.998200
      6 CA         -30.5790    14.1020   -14.0330 c3         1 QCN       0.056500
      7 CB         -29.3630    14.4330   -14.9420 c3         1 QCN      -0.006100
      8 CG         -28.5040    15.5890   -14.4290 ca         1 QCN      -0.109300
      9 CD1        -28.9740    16.9060   -14.5310 ca         1 QCN      -0.075000
     10 CE1        -28.1810    17.9630   -14.0730 ca         1 QCN      -0.151000
     11 CZ         -26.9170    17.7230   -13.5120 ca         1 QCN       0.148100
     12 OH         -26.2170    18.8130   -13.0940 oh         1 QCN      -0.549100
     13 CE2        -26.4030    16.3980   -13.3920 ca         1 QCN      -0.152300
     14 CD2        -27.2350    15.3440   -13.8670 ca         1 QCN      -0.050000
     15 C          -31.5450    13.1120   -14.7670 c          1 QCN       0.526900
     16 O          -31.8450    12.0000   -14.3400 o          1 QCN      -0.500100
     17 H1         -22.8800    16.4810   -13.2420 hc         1 QCN       0.036256
     18 H2         -23.9420    16.4780   -14.6600 hc         1 QCN       0.036256
     19 H3         -23.9130    17.8670   -13.5620 hc         1 QCN       0.036256
     20 H4         -25.7540    16.1280   -10.7130 hc         1 QCN       0.036256
     21 H5         -23.9910    16.2670   -10.8220 hc         1 QCN       0.036256
     22 H6         -25.0010    17.6570   -11.1940 hc         1 QCN       0.036256
     23 H7         -25.3850    14.0090   -12.1520 hc         1 QCN       0.036256
     24 H8         -24.6440    14.1520   -13.7680 hc         1 QCN       0.036256
     25 H9         -23.6700    14.3890   -12.3160 hc         1 QCN       0.036256
     26 H11        -29.6760    12.7590   -12.7160 hn         1 QCN       0.402500
     27 H13        -31.1580    15.0300   -13.9220 h1         1 QCN       0.080700
     28 H14        -29.7320    14.6870   -15.9440 hc         1 QCN       0.056200
     29 H15        -28.7560    13.5280   -15.0740 hc         1 QCN       0.056200
     30 H16        -29.9490    17.1110   -14.9670 ha         1 QCN       0.110000
     31 H17        -28.5490    18.9830   -14.1540 ha         1 QCN       0.126000
     32 H18        -25.3670    18.4930   -12.7300 ho         1 QCN       0.468000
     33 H19        -26.9210    14.3080   -13.8110 ha         1 QCN       0.111000
     34 H20        -31.9650    13.4840   -15.7280 h4         1 QCN      -0.023800
     35 H10        -30.9600    13.4820   -12.0740 hn         1 QCN       0.402500
@<TRIPOS>BOND
     1     1     2 1   
     2     1     3 1   
     3     1     4 1   
     4     1    13 1   
     5     2    17 1   
     6     2    18 1   
     7     2    19 1   
     8     3    20 1   
     9     3    21 1   
    10     3    22 1   
    11     4    23 1   
    12     4    24 1   
    13     4    25 1   
    14     5     6 1   
    15     5    26 1   
    16     5    35 1   
    17     6     7 1   
    18     6    15 1   
    19     6    27 1   
    20     7     8 1   
    21     7    28 1   
    22     7    29 1   
    23     8     9 ar  
    24     8    14 ar  
    25     9    10 ar  
    26     9    30 1   
    27    10    11 ar  
    28    10    31 1   
    29    11    12 1   
    30    11    13 ar  
    31    12    32 1   
    32    13    14 ar  
    33    14    33 1   
    34    15    16 2   
    35    15    34 1   
@<TRIPOS>SUBSTRUCTURE
     1 QCN         1 TEMP              0 ****  ****    0 ROOT
