@<TRIPOS>MOLECULE
QCN
   35    35     1     0     0
SMALL
bcc


@<TRIPOS>ATOM
      1 C1         -25.1180    16.0620   -12.7230 c3         1 QCN       0.006300
      2 C2         -23.9140    16.5860   -13.5230 c3         1 QCN      -0.087433
      3 C3         -25.1120    16.6080   -11.2840 c3         1 QCN      -0.087433
      4 C4         -24.9230    14.5470   -12.5970 c3         1 QCN      -0.087433
      5 N          -29.8410    13.6300   -12.7610 n8         1 QCN      -0.887800
      6 CA         -30.4250    14.1370   -13.9930 c3         1 QCN       0.056500
      7 CB         -29.3520    14.4970   -15.0180 c3         1 QCN      -0.006100
      8 CG         -28.4760    15.6310   -14.5650 ca         1 QCN      -0.109300
      9 CD1        -28.8530    16.9510   -14.7770 ca         1 QCN      -0.093000
     10 CE1        -28.0500    17.9850   -14.3320 ca         1 QCN      -0.169000
     11 CZ         -26.8520    17.7310   -13.6670 ca         1 QCN       0.148100
     12 OH         -26.1700    18.8430   -13.2980 oh         1 QCN      -0.510100
     13 CE2        -26.4310    16.4080   -13.4370 ca         1 QCN      -0.152300
     14 CD2        -27.2770    15.3990   -13.9020 ca         1 QCN      -0.068000
     15 C          -31.4400    13.1510   -14.5310 c          1 QCN       0.526900
     16 O          -31.4650    12.7030   -15.6490 o          1 QCN      -0.500100
     17 H1         -22.9850    16.3150   -13.0180 hc         1 QCN       0.036256
     18 H2         -23.8960    16.1390   -14.5180 hc         1 QCN       0.036256
     19 H3         -23.8950    17.6670   -13.6590 hc         1 QCN       0.036256
     20 H4         -25.9500    16.1980   -10.7190 hc         1 QCN       0.036256
     21 H5         -24.1920    16.3110   -10.7790 hc         1 QCN       0.036256
     22 H6         -25.1730    17.6940   -11.1980 hc         1 QCN       0.036256
     23 H7         -25.7140    14.0770   -12.0110 hc         1 QCN       0.036256
     24 H8         -24.8750    14.0510   -13.5680 hc         1 QCN       0.036256
     25 H9         -23.9780    14.3500   -12.0880 hc         1 QCN       0.036256
     26 H11        -29.4280    12.7180   -12.9110 hn         1 QCN       0.347300
     27 H13        -30.9880    15.0430   -13.7340 h1         1 QCN       0.080700
     28 H14        -29.8390    14.7670   -15.9580 hc         1 QCN       0.056200
     29 H15        -28.7450    13.6110   -15.2270 hc         1 QCN       0.056200
     30 H16        -29.7770    17.1800   -15.2950 ha         1 QCN       0.128000
     31 H17        -28.3410    19.0140   -14.5020 ha         1 QCN       0.144000
     32 H18        -25.3760    18.6330   -12.8020 ho         1 QCN       0.429000
     33 H19        -26.9920    14.3680   -13.7490 ha         1 QCN       0.129000
     34 H20        -32.1830    12.8290   -13.7750 h4         1 QCN      -0.023800
     35 H10        -30.5440    13.5240   -12.0410 hn         1 QCN       0.347300
@<TRIPOS>BOND
     1     1     2 1   
     2     1     3 1   
     3     1     4 1   
     4     1    13 1   
     5     2    17 1   
     6     2    18 1   
     7     2    19 1   
     8     3    20 1   
     9     3    21 1   
    10     3    22 1   
    11     4    23 1   
    12     4    24 1   
    13     4    25 1   
    14     5     6 1   
    15     5    26 1   
    16     5    35 1   
    17     6     7 1   
    18     6    15 1   
    19     6    27 1   
    20     7     8 1   
    21     7    28 1   
    22     7    29 1   
    23     8     9 ar  
    24     8    14 ar  
    25     9    10 ar  
    26     9    30 1   
    27    10    11 ar  
    28    10    31 1   
    29    11    12 1   
    30    11    13 ar  
    31    12    32 1   
    32    13    14 ar  
    33    14    33 1   
    34    15    16 2   
    35    15    34 1   
@<TRIPOS>SUBSTRUCTURE
     1 QCN         1 TEMP              0 ****  ****    0 ROOT
