@<TRIPOS>MOLECULE
QCO
   65    68     1     0     0
SMALL
No Charge or Current Charge


@<TRIPOS>ATOM
      1 N1         -20.3490     7.6360    28.4880 ns         1 QCO      -0.498900
      2 N3         -24.2850     3.8480    23.9310 na         1 QCO      -0.306500
      3 C4         -24.2040     5.4060    28.2470 ca         1 QCO      -0.171500
      4 C5         -23.3830     5.9840    27.2650 ca         1 QCO      -0.076000
      5 C6         -22.0340     5.5910    27.1360 ca         1 QCO      -0.101000
      6 C7         -21.5680     4.5170    27.9260 ca         1 QCO      -0.076000
      7 C8         -22.3910     3.9360    28.9060 ca         1 QCO      -0.171500
      8 C10        -19.4800     6.7760    27.8430 c          1 QCO       0.588100
      9 C13        -21.1540     6.9990    32.1860 ca         1 QCO      -0.052300
     10 C15        -22.4370     7.6760    34.1520 ca         1 QCO      -0.085000
     11 C17        -20.1150     7.0000    34.3890 ca         1 QCO       0.164000
     12 C20        -17.5010     6.1040    25.3280 ca         1 QCO      -0.053000
     13 C21        -16.5760     5.2480    24.7090 ca         1 QCO      -0.161000
     14 C22        -16.9420     3.9180    24.4470 ca         1 QCO       0.339900
     15 C26        -23.2800     4.3140    24.7540 cc         1 QCO      -0.162000
     16 O2         -21.1910     7.2300    24.0320 o          1 QCO      -0.560100
     17 C25        -22.8470     5.5000    24.1900 cd         1 QCO       0.178500
     18 N4         -23.5560     5.7150    23.0070 nd         1 QCO      -0.621000
     19 C27        -24.4200     4.7220    22.8860 cc         1 QCO       0.386400
     20 N          -21.2290     6.1160    26.0530 n          1 QCO      -0.249400
     21 C3         -23.7110     4.3980    29.0870 ca         1 QCO       0.150100
     22 O          -24.5670     3.8800    30.0400 os         1 QCO      -0.363100
     23 C1         -24.1310     3.0380    31.1260 c3         1 QCO       0.177300
     24 C2         -25.4040     2.4480    31.7610 c3         1 QCO      -0.107600
     25 C          -23.3270     3.8960    32.1280 c3         1 QCO      -0.107600
     26 C9         -19.8050     6.5040    26.3430 c3         1 QCO       0.097000
     27 C19        -18.7680     5.5940    25.6690 ca         1 QCO      -0.123300
     28 C23        -19.0460     4.2440    25.3620 ca         1 QCO       0.363900
     29 N2         -18.1570     3.4160    24.7630 nb         1 QCO      -0.669000
     30 O1         -18.5440     6.2520    28.4350 o          1 QCO      -0.585100
     31 C11        -20.3620     7.8830    29.9320 c3         1 QCO       0.104000
     32 C12        -21.0710     6.7450    30.6890 c3         1 QCO      -0.064100
     33 C18        -20.0320     6.7740    33.0070 ca         1 QCO      -0.146000
     34 F          -19.0350     6.7820    35.1710 f          1 QCO      -0.184000
     35 C16        -21.3130     7.4500    34.9660 ca         1 QCO      -0.149000
     36 C14        -22.3560     7.4510    32.7660 ca         1 QCO      -0.125000
     37 H1         -21.1150     8.0000    27.9330 hn         1 QCO       0.317500
     38 H3         -25.2310     5.7430    28.3600 ha         1 QCO       0.129500
     39 H4         -23.7910     6.7630    26.6250 ha         1 QCO       0.131000
     40 H5         -20.5590     4.1330    27.8010 ha         1 QCO       0.131000
     41 H6         -21.9890     3.1280    29.5090 ha         1 QCO       0.129500
     42 H7         -23.3690     8.0240    34.5940 ha         1 QCO       0.118000
     43 H8         -17.2360     7.1390    25.5400 ha         1 QCO       0.116000
     44 H9         -15.5880     5.6040    24.4330 ha         1 QCO       0.123000
     45 H10        -16.2430     3.2340    23.9670 h4         1 QCO       0.017100
     46 H11        -22.9530     3.7720    25.6310 h4         1 QCO       0.169000
     47 H13        -25.1360     4.5760    22.0850 h5         1 QCO       0.062100
     48 H14        -23.5160     2.2050    30.7630 h1         1 QCO       0.042700
     49 H15        -25.1460     1.7910    32.6000 hc         1 QCO       0.050033
     50 H16        -26.0600     3.2440    32.1350 hc         1 QCO       0.050033
     51 H17        -25.9610     1.8560    31.0240 hc         1 QCO       0.050033
     52 H18        -23.0750     3.3090    33.0190 hc         1 QCO       0.050033
     53 H19        -22.3880     4.2470    31.6860 hc         1 QCO       0.050033
     54 H20        -23.9070     4.7700    32.4470 hc         1 QCO       0.050033
     55 H21        -19.6660     7.4980    25.9000 h1         1 QCO       0.080700
     56 H22        -20.0140     3.8010    25.5900 h4         1 QCO       0.017100
     57 H23        -19.3300     7.9880    30.2950 h1         1 QCO       0.063200
     58 H24        -20.8860     8.8290    30.1220 h1         1 QCO       0.063200
     59 H25        -22.0770     6.6160    30.2720 hc         1 QCO       0.060200
     60 H26        -20.5400     5.8030    30.5030 hc         1 QCO       0.060200
     61 H27        -19.0980     6.4230    32.5760 ha         1 QCO       0.140000
     62 H28        -21.3690     7.6210    36.0380 ha         1 QCO       0.133000
     63 H29        -23.2310     7.6270    32.1440 ha         1 QCO       0.116000
     64 C24        -21.7100     6.3590    24.7280 c          1 QCO       0.542600
     65 H2         -24.8280     3.0010    24.0520 hn         1 QCO       0.357000
@<TRIPOS>BOND
     1     1     8 1   
     2     1    31 1   
     3     1    37 1   
     4     2    15 1   
     5     2    19 1   
     6     2    65 1   
     7     3     4 ar  
     8     3    21 ar  
     9     3    38 1   
    10     4     5 ar  
    11     4    39 1   
    12     5     6 ar  
    13     5    20 1   
    14     6     7 ar  
    15     6    40 1   
    16     7    21 ar  
    17     7    41 1   
    18     8    26 1   
    19     8    30 2   
    20     9    32 1   
    21     9    33 ar  
    22     9    36 ar  
    23    10    35 ar  
    24    10    36 ar  
    25    10    42 1   
    26    11    33 ar  
    27    11    34 1   
    28    11    35 ar  
    29    12    13 ar  
    30    12    27 ar  
    31    12    43 1   
    32    13    14 ar  
    33    13    44 1   
    34    14    29 ar  
    35    14    45 1   
    36    15    17 2   
    37    15    46 1   
    38    16    64 2   
    39    17    18 1   
    40    17    64 1   
    41    18    19 2   
    42    19    47 1   
    43    20    26 1   
    44    20    64 1   
    45    21    22 1   
    46    22    23 1   
    47    23    24 1   
    48    23    25 1   
    49    23    48 1   
    50    24    49 1   
    51    24    50 1   
    52    24    51 1   
    53    25    52 1   
    54    25    53 1   
    55    25    54 1   
    56    26    27 1   
    57    26    55 1   
    58    27    28 ar  
    59    28    29 ar  
    60    28    56 1   
    61    31    32 1   
    62    31    57 1   
    63    31    58 1   
    64    32    59 1   
    65    32    60 1   
    66    33    61 1   
    67    35    62 1   
    68    36    63 1   
@<TRIPOS>SUBSTRUCTURE
     1 QCO         1 TEMP              0 ****  ****    0 ROOT
