@<TRIPOS>MOLECULE
QCO
   65    68     1     0     0
SMALL
abcg2


@<TRIPOS>ATOM
      1 N1         -20.3110     7.6630    28.3820 ns         1 QCO      -0.498900
      2 N3         -24.4480     3.7240    23.9730 na         1 QCO      -0.306500
      3 C4         -24.0030     5.5390    28.4570 ca         1 QCO      -0.171500
      4 C5         -23.1970     5.9890    27.4300 ca         1 QCO      -0.076000
      5 C6         -22.0230     5.3110    27.1020 ca         1 QCO      -0.101000
      6 C7         -21.6690     4.1820    27.8270 ca         1 QCO      -0.076000
      7 C8         -22.4620     3.7320    28.8770 ca         1 QCO      -0.171500
      8 C10        -19.6890     6.6030    27.8410 c          1 QCO       0.588100
      9 C13        -21.4240     7.1310    31.9860 ca         1 QCO      -0.052300
     10 C15        -22.2250     8.0520    34.0790 ca         1 QCO      -0.085000
     11 C17        -20.5090     6.4110    34.0780 ca         1 QCO       0.164000
     12 C20        -17.5630     6.4150    25.4080 ca         1 QCO      -0.053000
     13 C21        -16.4840     5.7380    24.8610 ca         1 QCO      -0.161000
     14 C22        -16.6080     4.3750    24.6180 ca         1 QCO       0.339900
     15 C26        -23.4350     4.0300    24.8310 cc         1 QCO      -0.162000
     16 O2         -21.0170     6.5990    23.9310 o          1 QCO      -0.560100
     17 C25        -22.8460     5.1670    24.3210 cd         1 QCO       0.178500
     18 N4         -23.5030     5.5430    23.1600 nd         1 QCO      -0.621000
     19 C27        -24.4600     4.6630    22.9870 cc         1 QCO       0.386400
     20 N          -21.1980     5.7970    26.0380 n          1 QCO      -0.249400
     21 C3         -23.6360     4.4140    29.2030 ca         1 QCO       0.150100
     22 O          -24.4790     4.0710    30.2090 os         1 QCO      -0.363100
     23 C1         -24.0650     3.1080    31.2110 c3         1 QCO       0.177300
     24 C2         -25.3290     2.7190    31.9530 c3         1 QCO      -0.107600
     25 C          -23.0120     3.7130    32.1250 c3         1 QCO      -0.107600
     26 C9         -19.8990     6.4410    26.3220 c3         1 QCO       0.097000
     27 C19        -18.7300     5.7150    25.6970 ca         1 QCO      -0.123300
     28 C23        -18.7550     4.3560    25.4100 ca         1 QCO       0.363900
     29 N2         -17.7240     3.6890    24.8820 nb         1 QCO      -0.669000
     30 O1         -18.9830     5.8320    28.4850 o          1 QCO      -0.585100
     31 C11        -20.3550     7.8810    29.8200 c3         1 QCO       0.104000
     32 C12        -21.4630     7.0500    30.4860 c3         1 QCO      -0.064100
     33 C18        -20.5260     6.3340    32.7000 ca         1 QCO      -0.146000
     34 F          -19.6450     5.6120    34.7600 f          1 QCO      -0.184000
     35 C16        -21.3390     7.2530    34.7960 ca         1 QCO      -0.149000
     36 C14        -22.2670     7.9910    32.6900 ca         1 QCO      -0.125000
     37 H1         -20.9140     8.2210    27.7980 hn         1 QCO       0.317500
     38 H3         -24.9100     6.0680    28.7210 ha         1 QCO       0.129500
     39 H4         -23.4720     6.8760    26.8740 ha         1 QCO       0.131000
     40 H5         -20.7630     3.6450    27.5850 ha         1 QCO       0.131000
     41 H6         -22.1500     2.8600    29.4310 ha         1 QCO       0.129500
     42 H7         -22.8900     8.7200    34.6120 ha         1 QCO       0.118000
     43 H8         -17.5030     7.4790    25.6060 ha         1 QCO       0.116000
     44 H9         -15.5630     6.2530    24.6210 ha         1 QCO       0.123000
     45 H10        -15.7840     3.8140    24.1910 h4         1 QCO       0.017100
     46 H11        -23.2280     3.4290    25.6970 h4         1 QCO       0.169000
     47 H13        -25.1810     4.6530    22.1860 h5         1 QCO       0.062100
     48 H14        -23.6660     2.2280    30.7010 h1         1 QCO       0.042700
     49 H15        -25.0940     1.9730    32.7130 hc         1 QCO       0.050033
     50 H16        -25.7650     3.5900    32.4470 hc         1 QCO       0.050033
     51 H17        -26.0660     2.2980    31.2680 hc         1 QCO       0.050033
     52 H18        -22.7280     2.9880    32.8890 hc         1 QCO       0.050033
     53 H19        -22.1140     3.9980    31.5780 hc         1 QCO       0.050033
     54 H20        -23.4080     4.6030    32.6190 hc         1 QCO       0.050033
     55 H21        -19.9340     7.4420    25.8880 h1         1 QCO       0.080700
     56 H22        -19.6510     3.7770    25.5970 h4         1 QCO       0.017100
     57 H23        -19.3850     7.6080    30.2330 h1         1 QCO       0.063200
     58 H24        -20.5150     8.9440    29.9980 h1         1 QCO       0.063200
     59 H25        -22.4310     7.3890    30.1180 hc         1 QCO       0.060200
     60 H26        -21.3430     6.0130    30.1740 hc         1 QCO       0.060200
     61 H27        -19.8630     5.6470    32.1900 ha         1 QCO       0.140000
     62 H28        -21.2930     7.2750    35.8760 ha         1 QCO       0.133000
     63 H29        -22.9700     8.6090    32.1450 ha         1 QCO       0.116000
     64 C24        -21.6410     5.9160    24.7430 c          1 QCO       0.542600
     65 H2         -25.0780     2.9400    24.0570 hn         1 QCO       0.357000
@<TRIPOS>BOND
     1     1     8 1   
     2     1    31 1   
     3     1    37 1   
     4     2    15 1   
     5     2    19 1   
     6     2    65 1   
     7     3     4 ar  
     8     3    21 ar  
     9     3    38 1   
    10     4     5 ar  
    11     4    39 1   
    12     5     6 ar  
    13     5    20 1   
    14     6     7 ar  
    15     6    40 1   
    16     7    21 ar  
    17     7    41 1   
    18     8    26 1   
    19     8    30 2   
    20     9    32 1   
    21     9    33 ar  
    22     9    36 ar  
    23    10    35 ar  
    24    10    36 ar  
    25    10    42 1   
    26    11    33 ar  
    27    11    34 1   
    28    11    35 ar  
    29    12    13 ar  
    30    12    27 ar  
    31    12    43 1   
    32    13    14 ar  
    33    13    44 1   
    34    14    29 ar  
    35    14    45 1   
    36    15    17 2   
    37    15    46 1   
    38    16    64 2   
    39    17    18 1   
    40    17    64 1   
    41    18    19 2   
    42    19    47 1   
    43    20    26 1   
    44    20    64 1   
    45    21    22 1   
    46    22    23 1   
    47    23    24 1   
    48    23    25 1   
    49    23    48 1   
    50    24    49 1   
    51    24    50 1   
    52    24    51 1   
    53    25    52 1   
    54    25    53 1   
    55    25    54 1   
    56    26    27 1   
    57    26    55 1   
    58    27    28 ar  
    59    28    29 ar  
    60    28    56 1   
    61    31    32 1   
    62    31    57 1   
    63    31    58 1   
    64    32    59 1   
    65    32    60 1   
    66    33    61 1   
    67    35    62 1   
    68    36    63 1   
@<TRIPOS>SUBSTRUCTURE
     1 QCO         1 TEMP              0 ****  ****    0 ROOT
