@<TRIPOS>MOLECULE
QCP
   43    44     1     0     0
SMALL
No Charge or Current Charge


@<TRIPOS>ATOM
      1 C10          3.2710     1.9460     1.1450 c3         1 QCP      -0.047700
      2 C13          3.5780    -0.2700    -0.1670 ca         1 QCP      -0.086300
      3 C15          4.7180    -1.6480    -1.8340 ca         1 QCP      -0.110500
      4 C17          5.0160    -2.1210     0.5310 ca         1 QCP      -0.110500
      5 C20         -1.9810     0.6760    -1.1860 ca         1 QCP      -0.164500
      6 C21         -3.3660     0.4320    -1.1730 ca         1 QCP      -0.040500
      7 C03         -3.9830    -0.1420    -0.0370 ca         1 QCP      -0.192600
      8 C04         -3.1750    -0.4540     1.0780 ca         1 QCP      -0.040500
      9 C05         -1.7910    -0.2080     1.0600 ca         1 QCP      -0.164500
     10 C06         -1.1790     0.3570    -0.0770 ca         1 QCP       0.010000
     11 C08          1.2810     0.3640     0.6760 c          1 QCP       0.615100
     12 C09          2.6420     0.9010     0.1670 c3         1 QCP      -0.088400
     13 C11          4.6350     2.4720     0.6330 c3         1 QCP      -0.092600
     14 C12          2.3130     3.1300     1.4300 c3         1 QCP      -0.092600
     15 C14          3.8630    -0.5790    -1.5130 ca         1 QCP      -0.094500
     16 C16          5.2960    -2.4190    -0.8120 ca         1 QCP      -0.103000
     17 C18          4.1610    -1.0530     0.8530 ca         1 QCP      -0.094500
     18 N07          0.2110     0.6390    -0.1680 ns         1 QCP      -0.145000
     19 N22         -6.2060    -0.1550    -1.1320 ns         1 QCP      -0.374400
     20 O01         -6.0100    -0.8510     1.0360 o          1 QCP      -0.560100
     21 O19          1.1810    -0.2570     1.7300 o          1 QCP      -0.570100
     22 O23         -7.5750    -0.6100    -1.2710 oh         1 QCP      -0.436100
     23 H101         3.4560     1.4500     2.1060 hc         1 QCP       0.069700
     24 H151         4.9330    -1.8780    -2.8750 ha         1 QCP       0.114500
     25 H171         5.4600    -2.7190     1.3240 ha         1 QCP       0.114500
     26 H201        -1.5310     1.1190    -2.0710 ha         1 QCP       0.133500
     27 H211        -3.9410     0.7020    -2.0560 ha         1 QCP       0.126000
     28 H041        -3.6170    -0.8910     1.9710 ha         1 QCP       0.126000
     29 H051        -1.2170    -0.4590     1.9460 ha         1 QCP       0.133500
     30 H091         2.4410     1.4430    -0.7660 hc         1 QCP       0.052700
     31 H111         5.0560     3.2040     1.3330 hc         1 QCP       0.037867
     32 H112         5.3620     1.6580     0.5310 hc         1 QCP       0.037867
     33 H113         4.5240     2.9580    -0.3440 hc         1 QCP       0.037867
     34 H122         1.3850     2.7890     1.9030 hc         1 QCP       0.037867
     35 H121         2.7820     3.8510     2.1100 hc         1 QCP       0.037867
     36 H123         2.0550     3.6560     0.5030 hc         1 QCP       0.037867
     37 H141         3.4250     0.0080    -2.3170 ha         1 QCP       0.116500
     38 H161         5.9570    -3.2460    -1.0610 ha         1 QCP       0.114000
     39 H181         3.9500    -0.8400     1.8980 ha         1 QCP       0.116500
     40 H071         0.4690     1.1400    -1.0080 hn         1 QCP       0.151000
     41 H221        -5.7130     0.0460    -1.9990 hn         1 QCP       0.328500
     42 H231        -8.0590     0.1980    -1.5660 ho         1 QCP       0.449000
     43 C02         -5.4720    -0.4220     0.0210 c          1 QCP       0.612700
@<TRIPOS>BOND
     1     1    12 1   
     2     1    13 1   
     3     1    14 1   
     4     1    23 1   
     5     2    12 1   
     6     2    15 ar  
     7     2    17 ar  
     8     3    15 ar  
     9     3    16 ar  
    10     3    24 1   
    11     4    16 ar  
    12     4    17 ar  
    13     4    25 1   
    14     5     6 ar  
    15     5    10 ar  
    16     5    26 1   
    17     6     7 ar  
    18     6    27 1   
    19     7     8 ar  
    20     7    43 1   
    21     8     9 ar  
    22     8    28 1   
    23     9    10 ar  
    24     9    29 1   
    25    10    18 1   
    26    11    12 1   
    27    11    18 1   
    28    11    21 2   
    29    12    30 1   
    30    13    31 1   
    31    13    32 1   
    32    13    33 1   
    33    14    34 1   
    34    14    35 1   
    35    14    36 1   
    36    15    37 1   
    37    16    38 1   
    38    17    39 1   
    39    18    40 1   
    40    19    22 1   
    41    19    41 1   
    42    19    43 1   
    43    20    43 2   
    44    22    42 1   
@<TRIPOS>SUBSTRUCTURE
     1 QCP         1 TEMP              0 ****  ****    0 ROOT
