@<TRIPOS>MOLECULE
QCP
   43    44     1     0     0
SMALL
abcg2


@<TRIPOS>ATOM
      1 C10          3.2630     1.9490     1.1780 c3         1 QCP      -0.047700
      2 C13          3.4620    -0.2260    -0.1610 ca         1 QCP      -0.086300
      3 C15          4.5030    -1.6540    -1.8130 ca         1 QCP      -0.110500
      4 C17          4.7290    -2.1670     0.5190 ca         1 QCP      -0.110500
      5 C20         -1.9450     0.8860    -1.1410 ca         1 QCP      -0.164500
      6 C21         -3.2990     0.6200    -1.1250 ca         1 QCP      -0.040500
      7 C03         -3.8690    -0.0910    -0.0700 ca         1 QCP      -0.192600
      8 C04         -3.0410    -0.5080     0.9680 ca         1 QCP      -0.040500
      9 C05         -1.6800    -0.2570     0.9590 ca         1 QCP      -0.164500
     10 C06         -1.1140     0.4490    -0.1050 ca         1 QCP       0.010000
     11 C08          1.2570     0.5160     0.6510 c          1 QCP       0.615100
     12 C09          2.6190     0.9890     0.1600 c3         1 QCP      -0.088400
     13 C11          4.6300     2.4030     0.6810 c3         1 QCP      -0.092600
     14 C12          2.3590     3.1560     1.4200 c3         1 QCP      -0.092600
     15 C14          3.7400    -0.5400    -1.4880 ca         1 QCP      -0.094500
     16 C16          5.0010    -2.4720    -0.8090 ca         1 QCP      -0.103000
     17 C18          3.9650    -1.0550     0.8410 ca         1 QCP      -0.094500
     18 N07          0.2400     0.7580    -0.2180 ns         1 QCP      -0.145000
     19 N22         -5.9500    -0.4510    -1.1830 ns         1 QCP      -0.374400
     20 O01         -5.8950    -0.5640     1.0780 o          1 QCP      -0.560100
     21 O19          1.1170    -0.0380     1.7250 o          1 QCP      -0.570100
     22 O23         -7.2440    -0.8820    -1.2190 oh         1 QCP      -0.436100
     23 H101         3.3940     1.4170     2.1250 hc         1 QCP       0.069700
     24 H151         4.7090    -1.8800    -2.8520 ha         1 QCP       0.114500
     25 H171         5.1140    -2.8000     1.3090 ha         1 QCP       0.114500
     26 H201        -1.5240     1.4470    -1.9680 ha         1 QCP       0.133500
     27 H211        -3.9060     0.9970    -1.9380 ha         1 QCP       0.126000
     28 H041        -3.4620    -1.0520     1.8040 ha         1 QCP       0.126000
     29 H051        -1.0760    -0.6140     1.7760 ha         1 QCP       0.133500
     30 H091         2.4940     1.5540    -0.7700 hc         1 QCP       0.052700
     31 H111         5.0720     3.1170     1.3770 hc         1 QCP       0.037867
     32 H112         5.3260     1.5710     0.5750 hc         1 QCP       0.037867
     33 H113         4.5470     2.8940    -0.2920 hc         1 QCP       0.037867
     34 H122         1.4010     2.8790     1.8620 hc         1 QCP       0.037867
     35 H121         2.8350     3.8610     2.1020 hc         1 QCP       0.037867
     36 H123         2.1580     3.6840     0.4850 hc         1 QCP       0.037867
     37 H141         3.3580     0.0950    -2.2790 ha         1 QCP       0.116500
     38 H161         5.5970    -3.3400    -1.0580 ha         1 QCP       0.114000
     39 H181         3.7650    -0.8350     1.8820 ha         1 QCP       0.116500
     40 H071         0.4920     1.2400    -1.0670 hn         1 QCP       0.151000
     41 H221        -5.4340    -0.6490    -2.0290 hn         1 QCP       0.328500
     42 H231        -7.7810    -0.0910    -1.3530 ho         1 QCP       0.449000
     43 C02         -5.3230    -0.3980     0.0160 c          1 QCP       0.612700
@<TRIPOS>BOND
     1     1    12 1   
     2     1    13 1   
     3     1    14 1   
     4     1    23 1   
     5     2    12 1   
     6     2    15 ar  
     7     2    17 ar  
     8     3    15 ar  
     9     3    16 ar  
    10     3    24 1   
    11     4    16 ar  
    12     4    17 ar  
    13     4    25 1   
    14     5     6 ar  
    15     5    10 ar  
    16     5    26 1   
    17     6     7 ar  
    18     6    27 1   
    19     7     8 ar  
    20     7    43 1   
    21     8     9 ar  
    22     8    28 1   
    23     9    10 ar  
    24     9    29 1   
    25    10    18 1   
    26    11    12 1   
    27    11    18 1   
    28    11    21 2   
    29    12    30 1   
    30    13    31 1   
    31    13    32 1   
    32    13    33 1   
    33    14    34 1   
    34    14    35 1   
    35    14    36 1   
    36    15    37 1   
    37    16    38 1   
    38    17    39 1   
    39    18    40 1   
    40    19    22 1   
    41    19    41 1   
    42    19    43 1   
    43    20    43 2   
    44    22    42 1   
@<TRIPOS>SUBSTRUCTURE
     1 QCP         1 TEMP              0 ****  ****    0 ROOT
