@<TRIPOS>MOLECULE
QCQ
   53    56     1     0     0
SMALL
No Charge or Current Charge


@<TRIPOS>ATOM
      1 O3         -18.1180    17.5870   -36.2590 oh         1 QCQ      -0.747000
      2 C3         -17.1280    17.3830   -35.2290 c5         1 QCQ       0.089300
      3 C2         -15.7010    17.7970   -35.7080 c5         1 QCQ       0.149300
      4 F04        -14.7050    17.1470   -34.9690 f          1 QCQ      -0.220000
      5 C4         -17.3100    18.3490   -34.0080 c5         1 QCQ       0.143300
      6 C5         -16.6650    17.8420   -32.6700 c3         1 QCQ       0.216600
      7 O5         -16.1200    18.9310   -31.9050 os         1 QCQ      -0.562400
      8 PA         -17.0570    19.8180   -30.9310 p5         1 QCQ       1.441400
      9 C3A        -17.2530    18.7190   -29.5380 c3         1 QCQ      -0.769400
     10 PB         -15.7540    18.8390   -28.6030 p5         1 QCQ       1.372500
     11 O1B        -14.5260    18.8020   -29.4400 o          1 QCQ      -0.947833
     12 O2B        -15.7840    17.6460   -27.7100 o          1 QCQ      -0.947833
     13 O3B        -15.8160    20.0540   -27.7450 o          1 QCQ      -0.947833
     14 O1A        -16.4520    21.1410   -30.5940 o          1 QCQ      -0.880500
     15 O2A        -18.4210    19.9910   -31.5170 o          1 QCQ      -0.880500
     16 O4         -16.7300    19.6050   -34.4540 os         1 QCQ      -0.384000
     17 C1         -15.7270    19.3430   -35.4620 c5         1 QCQ       0.297300
     18 N9         -14.4810    20.0270   -35.1090 na         1 QCQ      -0.276300
     19 C8         -13.6710    19.7350   -34.0040 cc         1 QCQ       0.533700
     20 N7         -12.5370    20.4720   -34.0290 nd         1 QCQ      -0.620100
     21 C10        -12.6630    21.2460   -35.1910 ca         1 QCQ      -0.052600
     22 C9         -13.8380    20.9770   -35.8520 ca         1 QCQ       0.075500
     23 N3         -14.1660    21.5770   -37.0120 nb         1 QCQ      -0.195000
     24 C7         -13.2630    22.4630   -37.4890 ca         1 QCQ       0.245000
     25 Cl1        -13.6620    23.2520   -39.0050 cl         1 QCQ      -0.222000
     26 N1         -12.0820    22.8030   -36.9270 nb         1 QCQ      -0.331000
     27 C6         -11.7790    22.2050   -35.7620 ca         1 QCQ       0.427900
     28 N6         -10.5480    22.5790   -35.2330 nu         1 QCQ      -0.928100
     29 C29        -10.2660    22.7930   -33.8030 c3         1 QCQ       0.274100
     30 C30        -11.0210    24.0170   -33.2940 ca         1 QCQ      -0.101300
     31 C31        -10.4760    25.3070   -33.4570 ca         1 QCQ      -0.085000
     32 C32        -11.1720    26.4370   -32.9920 ca         1 QCQ      -0.122000
     33 C33        -12.4170    26.2860   -32.3610 ca         1 QCQ      -0.122000
     34 C34        -12.9670    25.0040   -32.1950 ca         1 QCQ      -0.122000
     35 C35        -12.2720    23.8730   -32.6590 ca         1 QCQ      -0.085000
     36 H1         -18.9840    17.2690   -35.9080 ho         1 QCQ       0.500000
     37 H2         -17.1380    16.3310   -34.9060 h1         1 QCQ       0.067700
     38 H3         -15.5320    17.5570   -36.7650 h1         1 QCQ       0.052700
     39 H4         -18.3750    18.5220   -33.8060 h1         1 QCQ       0.046700
     40 H5         -17.4350    17.3040   -32.1020 h1         1 QCQ       0.041200
     41 H6         -15.8760    17.1110   -32.8810 h1         1 QCQ       0.041200
     42 H7         -18.1020    19.0380   -28.9290 hc         1 QCQ       0.026200
     43 H8         -17.4180    17.6920   -29.8690 hc         1 QCQ       0.026200
     44 H12        -16.0660    19.8190   -36.3900 h2         1 QCQ       0.064700
     45 H13        -13.9480    19.0040   -33.2500 h5         1 QCQ       0.227800
     46 H14        -10.0300    23.1870   -35.8650 hn         1 QCQ       0.477000
     47 H15        -10.5350    21.9110   -33.2060 h1         1 QCQ       0.078700
     48 H16         -9.1890    22.9570   -33.6530 h1         1 QCQ       0.078700
     49 H17         -9.5120    25.4340   -33.9470 ha         1 QCQ       0.128000
     50 H18        -10.7450    27.4290   -33.1220 ha         1 QCQ       0.104500
     51 H19        -12.9560    27.1600   -32.0020 ha         1 QCQ       0.092000
     52 H20        -13.9320    24.8850   -31.7080 ha         1 QCQ       0.104500
     53 H21        -12.7070    22.8850   -32.5280 ha         1 QCQ       0.128000
@<TRIPOS>BOND
     1     1     2 1   
     2     1    36 1   
     3     2     3 1   
     4     2     5 1   
     5     2    37 1   
     6     3     4 1   
     7     3    17 1   
     8     3    38 1   
     9     5     6 1   
    10     5    16 1   
    11     5    39 1   
    12     6     7 1   
    13     6    40 1   
    14     6    41 1   
    15     7     8 1   
    16     8     9 1   
    17     8    14 1   
    18     8    15 1   
    19     9    10 1   
    20     9    42 1   
    21     9    43 1   
    22    10    11 1   
    23    10    12 1   
    24    10    13 1   
    25    16    17 1   
    26    17    18 1   
    27    17    44 1   
    28    18    19 1   
    29    18    22 1   
    30    19    20 2   
    31    19    45 1   
    32    20    21 1   
    33    21    22 ar  
    34    21    27 ar  
    35    22    23 ar  
    36    23    24 ar  
    37    24    25 1   
    38    24    26 ar  
    39    26    27 ar  
    40    27    28 1   
    41    28    29 1   
    42    28    46 1   
    43    29    30 1   
    44    29    47 1   
    45    29    48 1   
    46    30    31 ar  
    47    30    35 ar  
    48    31    32 ar  
    49    31    49 1   
    50    32    33 ar  
    51    32    50 1   
    52    33    34 ar  
    53    33    51 1   
    54    34    35 ar  
    55    34    52 1   
    56    35    53 1   
@<TRIPOS>SUBSTRUCTURE
     1 QCQ         1 TEMP              0 ****  ****    0 ROOT
