@<TRIPOS>MOLECULE
QCQ
   53    56     1     0     0
SMALL
bcc


@<TRIPOS>ATOM
      1 O3         -17.5450    17.2620   -36.3660 oh         1 QCQ      -0.624800
      2 C3         -16.8850    17.2940   -35.1240 c5         1 QCQ       0.066100
      3 C2         -15.5470    17.9580   -35.3940 c5         1 QCQ       0.130600
      4 F04        -14.6380    17.6200   -34.4070 f          1 QCQ      -0.201300
      5 C4         -17.5470    18.2560   -34.1220 c5         1 QCQ       0.120100
      6 C5         -17.4550    17.7790   -32.6880 c3         1 QCQ       0.193400
      7 O5         -18.1450    18.6840   -31.8650 os         1 QCQ      -0.539200
      8 PA         -18.4740    18.2670   -30.2830 p5         1 QCQ       1.283600
      9 C3A        -16.8570    18.2860   -29.4420 c3         1 QCQ      -0.453800
     10 PB         -15.5550    19.5990   -29.7850 p5         1 QCQ       1.214700
     11 O1B        -14.9180    19.1740   -31.1310 o          1 QCQ      -0.947833
     12 O2B        -14.5840    19.4470   -28.6080 o          1 QCQ      -0.947833
     13 O3B        -16.2650    20.9550   -29.8410 o          1 QCQ      -0.947833
     14 O1A        -19.3590    19.3800   -29.7850 o          1 QCQ      -0.880500
     15 O2A        -19.0180    16.8560   -30.2910 o          1 QCQ      -0.880500
     16 O4         -16.8880    19.5160   -34.2850 os         1 QCQ      -0.337600
     17 C1         -15.9130    19.4340   -35.2800 c5         1 QCQ       0.244800
     18 N9         -14.7990    20.2760   -34.9380 na         1 QCQ      -0.247000
     19 C8         -14.1970    20.4300   -33.7120 cc         1 QCQ       0.533700
     20 N7         -13.1400    21.1900   -33.7770 nd         1 QCQ      -0.620100
     21 C10        -13.0220    21.5460   -35.0980 ca         1 QCQ      -0.183200
     22 C9         -14.0590    20.9860   -35.8330 ca         1 QCQ       0.403800
     23 N3         -14.2800    21.1160   -37.1410 nb         1 QCQ      -0.721000
     24 C7         -13.3710    21.8810   -37.6900 ca         1 QCQ       0.771000
     25 CL1        -13.5600    22.1480   -39.3980 cl         1 QCQ      -0.222000
     26 N1         -12.3330    22.4760   -37.1510 nb         1 QCQ      -0.857000
     27 C6         -12.1030    22.3250   -35.8330 ca         1 QCQ       0.756200
     28 N6         -11.0080    22.9170   -35.3550 nu         1 QCQ      -0.872900
     29 C29        -10.5130    22.9020   -33.9950 c3         1 QCQ       0.274100
     30 C30        -10.7250    24.2200   -33.2940 ca         1 QCQ      -0.101300
     31 C31         -9.6520    25.0700   -33.0500 ca         1 QCQ      -0.103000
     32 C32         -9.8460    26.2930   -32.4200 ca         1 QCQ      -0.140000
     33 C33        -11.1200    26.6790   -32.0300 ca         1 QCQ      -0.140000
     34 C34        -12.1990    25.8350   -32.2710 ca         1 QCQ      -0.140000
     35 C35        -12.0020    24.6140   -32.8980 ca         1 QCQ      -0.103000
     36 H1         -18.4530    16.9740   -36.2280 ho         1 QCQ       0.401000
     37 H2         -16.7600    16.2880   -34.7030 h1         1 QCQ       0.067700
     38 H3         -15.1180    17.7000   -36.3630 h1         1 QCQ       0.052700
     39 H4         -18.6050    18.3850   -34.3800 h1         1 QCQ       0.046700
     40 H5         -17.9040    16.7790   -32.6480 h1         1 QCQ       0.041200
     41 H6         -16.4080    17.6940   -32.3820 h1         1 QCQ       0.041200
     42 H7         -17.1030    18.3280   -28.3750 hc         1 QCQ       0.026200
     43 H8         -16.3830    17.3100   -29.5880 hc         1 QCQ       0.026200
     44 H12        -16.2890    19.7800   -36.2510 h2         1 QCQ       0.064700
     45 H13        -14.5810    19.9750   -32.7890 h5         1 QCQ       0.227800
     46 H14        -10.4860    23.4620   -36.0260 hn         1 QCQ       0.421800
     47 H15        -11.0010    22.0960   -33.4500 h1         1 QCQ       0.078700
     48 H16         -9.4470    22.6690   -34.0270 h1         1 QCQ       0.078700
     49 H17         -8.6550    24.7730   -33.3540 ha         1 QCQ       0.146000
     50 H18         -9.0010    26.9440   -32.2350 ha         1 QCQ       0.122500
     51 H19        -11.2740    27.6300   -31.5380 ha         1 QCQ       0.110000
     52 H20        -13.1950    26.1290   -31.9650 ha         1 QCQ       0.122500
     53 H21        -12.8460    23.9560   -33.0720 ha         1 QCQ       0.146000
@<TRIPOS>BOND
     1     1     2 1   
     2     1    36 1   
     3     2     3 1   
     4     2     5 1   
     5     2    37 1   
     6     3     4 1   
     7     3    17 1   
     8     3    38 1   
     9     5     6 1   
    10     5    16 1   
    11     5    39 1   
    12     6     7 1   
    13     6    40 1   
    14     6    41 1   
    15     7     8 1   
    16     8     9 1   
    17     8    14 1   
    18     8    15 1   
    19     9    10 1   
    20     9    42 1   
    21     9    43 1   
    22    10    11 1   
    23    10    12 1   
    24    10    13 1   
    25    16    17 1   
    26    17    18 1   
    27    17    44 1   
    28    18    19 1   
    29    18    22 1   
    30    19    20 2   
    31    19    45 1   
    32    20    21 1   
    33    21    22 ar  
    34    21    27 ar  
    35    22    23 ar  
    36    23    24 ar  
    37    24    25 1   
    38    24    26 ar  
    39    26    27 ar  
    40    27    28 1   
    41    28    29 1   
    42    28    46 1   
    43    29    30 1   
    44    29    47 1   
    45    29    48 1   
    46    30    31 ar  
    47    30    35 ar  
    48    31    32 ar  
    49    31    49 1   
    50    32    33 ar  
    51    32    50 1   
    52    33    34 ar  
    53    33    51 1   
    54    34    35 ar  
    55    34    52 1   
    56    35    53 1   
@<TRIPOS>SUBSTRUCTURE
     1 QCQ         1 TEMP              0 ****  ****    0 ROOT
