@<TRIPOS>MOLECULE
QCR
   55    58     1     0     0
SMALL
No Charge or Current Charge


@<TRIPOS>ATOM
      1 F           -8.4130    20.5550     0.9350 f          1 QCR      -0.255000
      2 C16         -7.8750    20.4780     2.2450 c6         1 QCR       0.174300
      3 C15         -6.7320    21.5230     2.4100 c6         1 QCR       0.145300
      4 O           -7.1790    22.8560     2.1110 oh         1 QCR      -0.646000
      5 C14         -5.5320    21.1520     1.5100 c6         1 QCR      -0.134400
      6 C13         -5.0180    19.7240     1.8130 c6         1 QCR       0.232800
      7 C17         -7.3510    19.0340     2.4830 c6         1 QCR       0.199800
      8 N6          -6.1110    18.7070     1.6860 nh         1 QCR      -0.779300
      9 C10         -5.8510    17.3840     1.2340 ca         1 QCR       0.434900
     10 N4          -6.9170    16.5790     1.0620 nb         1 QCR      -0.307000
     11 N5          -4.5660    17.0400     1.0070 nb         1 QCR      -0.270000
     12 C11         -4.3360    15.7880     0.5760 ca         1 QCR       0.175900
     13 C12         -5.3880    14.8860     0.3690 ca         1 QCR      -0.332000
     14 C9          -6.6820    15.3370     0.6240 ca         1 QCR       0.425900
     15 N3          -7.7480    14.4780     0.4320 nu         1 QCR      -0.905800
     16 C8          -9.1110    14.5670     0.4750 ca         1 QCR       0.609900
     17 C7          -9.8690    15.7350     0.6400 ca         1 QCR      -0.173000
     18 N7          -9.6330    13.3550     0.3090 nb         1 QCR      -0.732000
     19 C18        -10.9800    13.2470     0.3160 ca         1 QCR       0.410900
     20 C19        -11.8350    14.3470     0.4830 ca         1 QCR      -0.194000
     21 C1         -13.2360    14.2240     0.4960 ca         1 QCR       0.597900
     22 N          -13.9010    13.0090     0.3440 nu         1 QCR      -0.940100
     23 C          -15.3610    12.7880     0.3490 c3         1 QCR       0.227100
     24 C6         -11.2750    15.6340     0.6470 ca         1 QCR       0.029000
     25 C2         -12.1560    16.7400     0.8110 ca         1 QCR       0.265300
     26 N2         -13.5010    16.5400     0.8250 nb         1 QCR      -0.281000
     27 N1         -14.0270    15.3060     0.6680 nb         1 QCR      -0.437000
     28 C3         -11.6630    18.1870     1.0270 c3         1 QCR      -0.106000
     29 C5         -11.2670    18.4180     2.5040 c3         1 QCR      -0.084100
     30 C4         -12.6610    19.2720     0.5450 c3         1 QCR      -0.084100
     31 H1          -8.6900    20.6980     2.9470 h1         1 QCR       0.073700
     32 H2          -6.3950    21.4830     3.4570 h1         1 QCR       0.031700
     33 H3          -6.4200    23.4570     2.2800 ho         1 QCR       0.445000
     34 H4          -5.8190    21.2170     0.4520 hc         1 QCR       0.065700
     35 H5          -4.7130    21.8680     1.6570 hc         1 QCR       0.065700
     36 H6          -4.5920    19.6950     2.8280 h1         1 QCR       0.067700
     37 H7          -4.1950    19.5180     1.1130 h1         1 QCR       0.067700
     38 H8          -7.1390    18.9130     3.5560 h1         1 QCR       0.073700
     39 H9          -8.1780    18.3480     2.2530 h1         1 QCR       0.073700
     40 H10         -3.3000    15.5080     0.3950 h4         1 QCR       0.022100
     41 H11         -5.1940    13.8770     0.0180 ha         1 QCR       0.135000
     42 H12         -7.4790    13.5260     0.2150 hn         1 QCR       0.515000
     43 H13         -9.3780    16.6890     0.7520 ha         1 QCR       0.166000
     44 H14        -11.3680    12.2390     0.1830 h4         1 QCR       0.016100
     45 H15        -13.3110    12.1890     0.2140 hn         1 QCR       0.489000
     46 H16        -15.5900    11.7230     0.2070 h1         1 QCR       0.044700
     47 H17        -15.7980    13.1090     1.3050 h1         1 QCR       0.044700
     48 H18        -15.8410    13.3540    -0.4600 h1         1 QCR       0.044700
     49 H19        -10.7650    18.3430     0.4190 hc         1 QCR       0.055700
     50 H20        -10.5060    17.6960     2.8240 hc         1 QCR       0.038700
     51 H21        -10.8590    19.4260     2.6440 hc         1 QCR       0.038700
     52 H22        -12.1380    18.3070     3.1600 hc         1 QCR       0.038700
     53 H23        -12.2120    20.2700     0.6230 hc         1 QCR       0.038700
     54 H24        -12.9350    19.1090    -0.5050 hc         1 QCR       0.038700
     55 H25        -13.5780    19.2680     1.1470 hc         1 QCR       0.038700
@<TRIPOS>BOND
     1     1     2 1   
     2     2     3 1   
     3     2     7 1   
     4     2    31 1   
     5     3     4 1   
     6     3     5 1   
     7     3    32 1   
     8     4    33 1   
     9     5     6 1   
    10     5    34 1   
    11     5    35 1   
    12     6     8 1   
    13     6    36 1   
    14     6    37 1   
    15     7     8 1   
    16     7    38 1   
    17     7    39 1   
    18     8     9 1   
    19     9    10 ar  
    20     9    11 ar  
    21    10    14 ar  
    22    11    12 ar  
    23    12    13 ar  
    24    12    40 1   
    25    13    14 ar  
    26    13    41 1   
    27    14    15 1   
    28    15    16 1   
    29    15    42 1   
    30    16    17 ar  
    31    16    18 ar  
    32    17    24 ar  
    33    17    43 1   
    34    18    19 ar  
    35    19    20 ar  
    36    19    44 1   
    37    20    21 ar  
    38    20    24 ar  
    39    21    22 1   
    40    21    27 ar  
    41    22    23 1   
    42    22    45 1   
    43    23    46 1   
    44    23    47 1   
    45    23    48 1   
    46    24    25 ar  
    47    25    26 ar  
    48    25    28 1   
    49    26    27 ar  
    50    28    29 1   
    51    28    30 1   
    52    28    49 1   
    53    29    50 1   
    54    29    51 1   
    55    29    52 1   
    56    30    53 1   
    57    30    54 1   
    58    30    55 1   
@<TRIPOS>SUBSTRUCTURE
     1 QCR         1 TEMP              0 ****  ****    0 ROOT
