@<TRIPOS>MOLECULE
QCR
   55    58     1     0     0
SMALL
abcg2


@<TRIPOS>ATOM
      1 F           -8.2260    19.7830     0.2340 f          1 QCR      -0.255000
      2 C16         -8.0880    20.1850     1.5840 c6         1 QCR       0.174300
      3 C15         -7.1190    21.3500     1.6670 c6         1 QCR       0.145300
      4 O           -7.6190    22.4050     0.8500 oh         1 QCR      -0.646000
      5 C14         -5.7060    20.9190     1.2850 c6         1 QCR      -0.134400
      6 C13         -5.2660    19.7200     2.1270 c6         1 QCR       0.232800
      7 C17         -7.5840    19.0000     2.3910 c6         1 QCR       0.199800
      8 N6          -6.2340    18.6370     2.0000 nh         1 QCR      -0.779300
      9 C10         -5.9240    17.4280     1.4550 ca         1 QCR       0.434900
     10 N4          -6.9390    16.5620     1.2510 nb         1 QCR      -0.307000
     11 N5          -4.6320    17.1840     1.1720 nb         1 QCR      -0.270000
     12 C11         -4.3590    15.9720     0.6790 ca         1 QCR       0.175900
     13 C12         -5.3110    15.0050     0.4510 ca         1 QCR      -0.332000
     14 C9          -6.6360    15.3700     0.7530 ca         1 QCR       0.425900
     15 N3          -7.6290    14.4480     0.5140 nu         1 QCR      -0.905800
     16 C8          -9.0090    14.5470     0.5500 ca         1 QCR       0.609900
     17 C7          -9.7230    15.6940     0.8590 ca         1 QCR      -0.173000
     18 N7          -9.6140    13.3790     0.2250 nb         1 QCR      -0.732000
     19 C18        -10.9280    13.3360     0.1850 ca         1 QCR       0.410900
     20 C19        -11.7520    14.4400     0.4620 ca         1 QCR      -0.194000
     21 C1         -13.1910    14.4330     0.4060 ca         1 QCR       0.597900
     22 N          -13.8710    13.3160     0.0670 nu         1 QCR      -0.940100
     23 C          -15.3150    13.2790    -0.0690 c3         1 QCR       0.227100
     24 C6         -11.1230    15.6500     0.8160 ca         1 QCR       0.029000
     25 C2         -11.9740    16.7740     1.1120 ca         1 QCR       0.265300
     26 N2         -13.2720    16.6670     1.0430 nb         1 QCR      -0.281000
     27 N1         -13.9000    15.5170     0.6890 nb         1 QCR      -0.437000
     28 C3         -11.3910    18.0960     1.5660 c3         1 QCR      -0.106000
     29 C5         -11.0840    18.0420     3.0720 c3         1 QCR      -0.084100
     30 C4         -12.2730    19.2980     1.2360 c3         1 QCR      -0.084100
     31 H1          -9.0820    20.4850     1.9180 h1         1 QCR       0.073700
     32 H2          -7.1200    21.6630     2.7200 h1         1 QCR       0.031700
     33 H3          -7.0330    23.1660     0.9500 ho         1 QCR       0.445000
     34 H4          -5.6810    20.6560     0.2250 hc         1 QCR       0.065700
     35 H5          -5.0160    21.7510     1.4440 hc         1 QCR       0.065700
     36 H6          -5.2030    20.0080     3.1830 h1         1 QCR       0.067700
     37 H7          -4.2930    19.3610     1.8150 h1         1 QCR       0.067700
     38 H8          -7.5930    19.2820     3.4500 h1         1 QCR       0.073700
     39 H9          -8.2410    18.1510     2.2640 h1         1 QCR       0.073700
     40 H10         -3.3160    15.7720     0.4540 h4         1 QCR       0.022100
     41 H11         -5.0630    14.0340     0.0490 ha         1 QCR       0.135000
     42 H12         -7.3120    13.5440     0.1930 hn         1 QCR       0.515000
     43 H13         -9.1910    16.5900     1.1130 ha         1 QCR       0.166000
     44 H14        -11.3530    12.3750    -0.0800 h4         1 QCR       0.016100
     45 H15        -13.3590    12.5120    -0.2470 hn         1 QCR       0.489000
     46 H16        -15.5970    12.2750    -0.3770 h1         1 QCR       0.044700
     47 H17        -15.8050    13.5120     0.8780 h1         1 QCR       0.044700
     48 H18        -15.6650    13.9950    -0.8160 h1         1 QCR       0.044700
     49 H19        -10.4470    18.2340     1.0340 hc         1 QCR       0.055700
     50 H20        -10.4150    17.2160     3.3190 hc         1 QCR       0.038700
     51 H21        -10.6130    18.9710     3.3980 hc         1 QCR       0.038700
     52 H22        -12.0090    17.9120     3.6380 hc         1 QCR       0.038700
     53 H23        -11.7490    20.2170     1.5050 hc         1 QCR       0.038700
     54 H24        -12.5080    19.3360     0.1710 hc         1 QCR       0.038700
     55 H25        -13.2130    19.2660     1.7880 hc         1 QCR       0.038700
@<TRIPOS>BOND
     1     1     2 1   
     2     2     3 1   
     3     2     7 1   
     4     2    31 1   
     5     3     4 1   
     6     3     5 1   
     7     3    32 1   
     8     4    33 1   
     9     5     6 1   
    10     5    34 1   
    11     5    35 1   
    12     6     8 1   
    13     6    36 1   
    14     6    37 1   
    15     7     8 1   
    16     7    38 1   
    17     7    39 1   
    18     8     9 1   
    19     9    10 ar  
    20     9    11 ar  
    21    10    14 ar  
    22    11    12 ar  
    23    12    13 ar  
    24    12    40 1   
    25    13    14 ar  
    26    13    41 1   
    27    14    15 1   
    28    15    16 1   
    29    15    42 1   
    30    16    17 ar  
    31    16    18 ar  
    32    17    24 ar  
    33    17    43 1   
    34    18    19 ar  
    35    19    20 ar  
    36    19    44 1   
    37    20    21 ar  
    38    20    24 ar  
    39    21    22 1   
    40    21    27 ar  
    41    22    23 1   
    42    22    45 1   
    43    23    46 1   
    44    23    47 1   
    45    23    48 1   
    46    24    25 ar  
    47    25    26 ar  
    48    25    28 1   
    49    26    27 ar  
    50    28    29 1   
    51    28    30 1   
    52    28    49 1   
    53    29    50 1   
    54    29    51 1   
    55    29    52 1   
    56    30    53 1   
    57    30    54 1   
    58    30    55 1   
@<TRIPOS>SUBSTRUCTURE
     1 QCR         1 TEMP              0 ****  ****    0 ROOT
