@<TRIPOS>MOLECULE
QCS
   17    16     1     0     0
SMALL
bcc


@<TRIPOS>ATOM
      1 N            5.5640    18.9580     9.3700 n8         1 QCS      -0.895800
      2 CA           6.4740    19.4660     8.3580 c3         1 QCS       0.014500
      3 CB           7.7440    20.0190     8.9930 c3         1 QCS       0.106700
      4 SG           7.3020    21.3750    10.1240 ss         1 QCS      -0.413700
      5 CD           8.9220    21.9450    10.6180 c          1 QCS       0.717700
      6 NE2          8.8610    22.9440    11.5110 nt         1 QCS      -0.681000
      7 OE1          9.9490    21.4660    10.1860 o          1 QCS      -0.595100
      8 C            6.8350    18.3560     7.3240 c          1 QCS       0.935600
      9 O            7.8640    18.5430     6.6510 o          1 QCS      -0.823300
     10 OXT          6.0390    17.4030     7.2390 o          1 QCS      -0.823300
     11 H            4.9150    19.6760     9.6610 hn         1 QCS       0.335800
     12 H2           5.0170    18.2240     8.9380 hn         1 QCS       0.335800
     13 H4           6.0220    20.2790     7.7650 h1         1 QCS       0.011700
     14 H5           8.2550    19.2420     9.5620 h1         1 QCS       0.081700
     15 H6           8.4140    20.4050     8.2300 h1         1 QCS       0.081700
     16 H7           9.7120    23.3610    11.8500 hn         1 QCS       0.306500
     17 H8           7.9910    23.3170    11.8510 hn         1 QCS       0.306500
@<TRIPOS>BOND
     1     1     2 1   
     2     1    11 1   
     3     1    12 1   
     4     2     3 1   
     5     2     8 1   
     6     2    13 1   
     7     3     4 1   
     8     3    14 1   
     9     3    15 1   
    10     4     5 1   
    11     5     6 1   
    12     5     7 2   
    13     6    16 1   
    14     6    17 1   
    15     8     9 1   
    16     8    10 1   
@<TRIPOS>SUBSTRUCTURE
     1 QCS         1 TEMP              0 ****  ****    0 ROOT
