@<TRIPOS>MOLECULE
QCS
   17    16     1     0     0
SMALL
No Charge or Current Charge


@<TRIPOS>ATOM
      1 N            5.6230    18.7390     9.4960 n8         1 QCS      -0.895800
      2 CA           6.4790    19.3120     8.3830 c3         1 QCS       0.014500
      3 CB           7.7230    20.0370     8.9600 c3         1 QCS       0.106700
      4 SG           7.2370    21.4050    10.1210 ss         1 QCS      -0.413700
      5 CD           8.8740    22.0040    10.5790 c          1 QCS       0.717700
      6 NE2          8.8050    23.0290    11.4440 nt         1 QCS      -0.681000
      7 OE1          9.9330    21.5600    10.1750 o          1 QCS      -0.595100
      8 C            6.8960    18.3250     7.2070 c          1 QCS       0.935600
      9 O            8.0230    17.8370     7.1970 o          1 QCS      -0.823300
     10 OXT          6.0720    18.0890     6.3270 o          1 QCS      -0.823300
     11 H            5.4090    19.4900    10.1620 hn         1 QCS       0.335800
     12 H2           4.7120    18.4620     9.1140 hn         1 QCS       0.335800
     13 H4           5.8640    20.0900     7.9090 h1         1 QCS       0.011700
     14 H5           8.3580    19.3170     9.4930 h1         1 QCS       0.081700
     15 H6           8.3110    20.4660     8.1380 h1         1 QCS       0.081700
     16 H7           9.6580    23.4530    11.7760 hn         1 QCS       0.306500
     17 H8           7.9030    23.3610    11.7490 hn         1 QCS       0.306500
@<TRIPOS>BOND
     1     1     2 1   
     2     1    11 1   
     3     1    12 1   
     4     2     3 1   
     5     2     8 1   
     6     2    13 1   
     7     3     4 1   
     8     3    14 1   
     9     3    15 1   
    10     4     5 1   
    11     5     6 1   
    12     5     7 2   
    13     6    16 1   
    14     6    17 1   
    15     8     9 1   
    16     8    10 1   
@<TRIPOS>SUBSTRUCTURE
     1 QCS         1 TEMP              0 ****  ****    0 ROOT
