@<TRIPOS>MOLECULE
QCT
   52    55     1     0     0
SMALL
bcc


@<TRIPOS>ATOM
      1 O10          4.1150     3.0040     0.8790 oh         1 QCT      -0.588800
      2 C23          3.0830     2.1400     0.4680 c6         1 QCT       0.118100
      3 C22          1.7620     2.8720     0.2540 c6         1 QCT       0.102100
      4 O9           1.9820     3.9240    -0.6500 oh         1 QCT      -0.570800
      5 C24          3.5220     1.4690    -0.8280 c6         1 QCT       0.124100
      6 O11          4.6840     0.6990    -0.6360 oh         1 QCT      -0.598800
      7 C25          2.4250     0.5200    -1.3070 c6         1 QCT       0.151100
      8 C26          2.7180    -0.0780    -2.6660 c3         1 QCT      -0.081100
      9 O8           1.1790     1.2040    -1.4200 os         1 QCT      -0.412600
     10 C21          0.7240     1.9040    -0.3180 c6         1 QCT       0.304900
     11 O7           0.3390     1.0370     0.7440 os         1 QCT      -0.338900
     12 C3          -0.8390     0.3940     0.5480 cc         1 QCT      -0.094100
     13 C4          -2.0690     1.1500     0.6780 c          1 QCT       0.600900
     14 O2          -2.0750     2.3490     0.9950 o          1 QCT      -0.602100
     15 C2          -0.8720    -0.9300     0.2640 cd         1 QCT       0.211900
     16 C11          0.2880    -1.8190     0.1850 ca         1 QCT      -0.080800
     17 C12          1.2490    -1.8170     1.1990 ca         1 QCT      -0.134000
     18 C13          2.3430    -2.6580     1.1270 ca         1 QCT       0.037100
     19 O5           3.3100    -2.7230     2.0670 oh         1 QCT      -0.515100
     20 C14          2.4970    -3.5170     0.0270 ca         1 QCT       0.153100
     21 O6           3.5500    -4.3440    -0.0780 oh         1 QCT      -0.487100
     22 C15          1.5370    -3.5170    -0.9740 ca         1 QCT      -0.155000
     23 C16          0.4330    -2.6820    -0.8950 ca         1 QCT      -0.074000
     24 O1          -2.0280    -1.5750     0.0330 os         1 QCT      -0.201200
     25 C9          -3.2150    -0.9380     0.0570 ca         1 QCT       0.238100
     26 C8          -4.3360    -1.6860    -0.2440 ca         1 QCT      -0.253000
     27 C7          -5.5720    -1.0460    -0.2010 ca         1 QCT       0.247100
     28 O4          -6.6470    -1.7830    -0.4930 oh         1 QCT      -0.480100
     29 C6          -5.6830     0.3060     0.1350 ca         1 QCT      -0.327000
     30 C5          -4.5470     1.0360     0.4330 ca         1 QCT       0.289100
     31 C10         -3.2750     0.4160     0.3920 ca         1 QCT      -0.381600
     32 O3          -4.6610     2.3210     0.7520 oh         1 QCT      -0.498100
     33 H101         3.9910     3.2160     1.8090 ho         1 QCT       0.408000
     34 H23          2.9150     1.3530     1.2170 h1         1 QCT       0.050700
     35 H22          1.3870     3.2470     1.2160 h1         1 QCT       0.055700
     36 HO91         1.1990     4.4820    -0.6710 ho         1 QCT       0.408000
     37 H24          3.6840     2.2400    -1.5960 h1         1 QCT       0.072700
     38 HO11         5.3680     1.2800    -0.2900 ho         1 QCT       0.421000
     39 H25          2.3400    -0.2930    -0.5770 h1         1 QCT       0.053700
     40 H262         3.6500    -0.6400    -2.6410 hc         1 QCT       0.048367
     41 H263         1.9260    -0.7670    -2.9590 hc         1 QCT       0.048367
     42 H261         2.8080     0.6970    -3.4300 hc         1 QCT       0.048367
     43 H21         -0.1460     2.4660    -0.6710 h2         1 QCT       0.087700
     44 H12          1.1400    -1.1620     2.0550 ha         1 QCT       0.147000
     45 HO51         3.1200    -2.1300     2.8030 ho         1 QCT       0.439000
     46 HO61         4.1190    -4.2770     0.6990 ho         1 QCT       0.449000
     47 H15          1.6600    -4.1800    -1.8200 ha         1 QCT       0.156000
     48 H16         -0.2960    -2.6980    -1.6940 ha         1 QCT       0.149000
     49 H8          -4.2570    -2.7350    -0.4960 ha         1 QCT       0.172000
     50 HO4         -7.4530    -1.2570    -0.4360 ho         1 QCT       0.439000
     51 H6          -6.6530     0.7890     0.1700 ha         1 QCT       0.156000
     52 HO3         -3.7540     2.6650     0.9320 ho         1 QCT       0.484000
@<TRIPOS>BOND
     1     1     2 1   
     2     1    33 1   
     3     2     3 1   
     4     2     5 1   
     5     2    34 1   
     6     3     4 1   
     7     3    10 1   
     8     3    35 1   
     9     4    36 1   
    10     5     6 1   
    11     5     7 1   
    12     5    37 1   
    13     6    38 1   
    14     7     8 1   
    15     7     9 1   
    16     7    39 1   
    17     8    40 1   
    18     8    41 1   
    19     8    42 1   
    20     9    10 1   
    21    10    11 1   
    22    10    43 1   
    23    11    12 1   
    24    12    13 1   
    25    12    15 2   
    26    13    14 2   
    27    13    31 1   
    28    15    16 1   
    29    15    24 1   
    30    16    17 ar  
    31    16    23 ar  
    32    17    18 ar  
    33    17    44 1   
    34    18    19 1   
    35    18    20 ar  
    36    19    45 1   
    37    20    21 1   
    38    20    22 ar  
    39    21    46 1   
    40    22    23 ar  
    41    22    47 1   
    42    23    48 1   
    43    24    25 1   
    44    25    26 ar  
    45    25    31 ar  
    46    26    27 ar  
    47    26    49 1   
    48    27    28 1   
    49    27    29 ar  
    50    28    50 1   
    51    29    30 ar  
    52    29    51 1   
    53    30    31 ar  
    54    30    32 1   
    55    32    52 1   
@<TRIPOS>SUBSTRUCTURE
     1 QCT         1 TEMP              0 ****  ****    0 ROOT
