@<TRIPOS>MOLECULE
QCT
   52    55     1     0     0
SMALL
No Charge or Current Charge


@<TRIPOS>ATOM
      1 O10          4.7630     1.8650     0.3900 oh         1 QCT      -0.651000
      2 C23          3.4020     1.5420     0.0560 c6         1 QCT       0.141300
      3 C22          2.4280     2.4320     0.8860 c6         1 QCT       0.125300
      4 O9           2.7930     3.8270     0.7040 oh         1 QCT      -0.693000
      5 C24          3.1600     1.7420    -1.4730 c6         1 QCT       0.147300
      6 O11          4.0390     0.8770    -2.2240 oh         1 QCT      -0.721000
      7 C25          1.6560     1.4860    -1.8060 c6         1 QCT       0.174300
      8 C26          1.2980     1.8050    -3.2790 c3         1 QCT      -0.081100
      9 O8           0.8070     2.3280    -0.9860 os         1 QCT      -0.459000
     10 C21          0.9530     2.1240     0.4420 c6         1 QCT       0.351300
     11 O7           0.6050     0.7590     0.7640 os         1 QCT      -0.362100
     12 C3          -0.6630     0.2380     0.5550 cc         1 QCT      -0.094100
     13 C4          -1.8870     1.0590     0.3120 c          1 QCT       0.600900
     14 O2          -1.9490     2.2780     0.4390 o          1 QCT      -0.602100
     15 C2          -0.6700    -1.1460     0.4090 cd         1 QCT       0.211900
     16 C11          0.4080    -2.1370     0.7110 ca         1 QCT      -0.080800
     17 C12          1.4870    -1.8600     1.5910 ca         1 QCT      -0.116000
     18 C13          2.4770    -2.8250     1.8480 ca         1 QCT       0.037100
     19 O5           3.5120    -2.5460     2.7050 oh         1 QCT      -0.554100
     20 C14          2.4020    -4.0890     1.2340 ca         1 QCT       0.153100
     21 O6           3.3660    -5.0190     1.4890 oh         1 QCT      -0.526100
     22 C15          1.3370    -4.3900     0.3790 ca         1 QCT      -0.137000
     23 C16          0.3460    -3.4260     0.1250 ca         1 QCT      -0.056000
     24 O1          -1.8500    -1.7580     0.0710 os         1 QCT      -0.201200
     25 C9          -3.0240    -1.0970    -0.1810 ca         1 QCT       0.238100
     26 C8          -4.1450    -1.8510    -0.5450 ca         1 QCT      -0.235000
     27 C7          -5.3590    -1.2160    -0.8090 ca         1 QCT       0.247100
     28 O4          -6.4440    -1.9540    -1.1620 oh         1 QCT      -0.519100
     29 C6          -5.4570     0.1730    -0.7100 ca         1 QCT      -0.309000
     30 C5          -4.3360     0.9250    -0.3460 ca         1 QCT       0.289100
     31 C10         -3.1080     0.2960    -0.0770 ca         1 QCT      -0.381600
     32 O3          -4.4580     2.2700    -0.2570 oh         1 QCT      -0.537100
     33 H101         4.7380     2.8280     0.6020 ho         1 QCT       0.447000
     34 H23          3.2020     0.4880     0.3010 h1         1 QCT       0.050700
     35 H22          2.5260     2.1560     1.9470 h1         1 QCT       0.055700
     36 HO91         2.1870     4.3710     1.2600 ho         1 QCT       0.507000
     37 H24          3.3790     2.7930    -1.7190 h1         1 QCT       0.072700
     38 HO11         4.8910     0.8850    -1.7250 ho         1 QCT       0.520000
     39 H25          1.4110     0.4310    -1.6140 h1         1 QCT       0.053700
     40 H262         1.8550     1.1610    -3.9690 hc         1 QCT       0.048367
     41 H263         0.2300     1.6430    -3.4660 hc         1 QCT       0.048367
     42 H261         1.5310     2.8470    -3.5290 hc         1 QCT       0.048367
     43 H21          0.2880     2.8090     0.9860 h2         1 QCT       0.087700
     44 H12          1.5460    -0.9120     2.1150 ha         1 QCT       0.129000
     45 HO51         3.4050    -1.6340     3.0560 ho         1 QCT       0.478000
     46 HO61         3.9910    -4.5880     2.1150 ho         1 QCT       0.488000
     47 H15          1.2780    -5.3690    -0.0890 ha         1 QCT       0.138000
     48 H16         -0.4630    -3.6880    -0.5540 ha         1 QCT       0.131000
     49 H8          -4.0690    -2.9320    -0.6210 ha         1 QCT       0.154000
     50 HO4         -7.1930    -1.3390    -1.3050 ho         1 QCT       0.478000
     51 H6          -6.3960     0.6800    -0.9140 ha         1 QCT       0.138000
     52 HO3         -3.5590     2.5880     0.0180 ho         1 QCT       0.523000
@<TRIPOS>BOND
     1     1     2 1   
     2     1    33 1   
     3     2     3 1   
     4     2     5 1   
     5     2    34 1   
     6     3     4 1   
     7     3    10 1   
     8     3    35 1   
     9     4    36 1   
    10     5     6 1   
    11     5     7 1   
    12     5    37 1   
    13     6    38 1   
    14     7     8 1   
    15     7     9 1   
    16     7    39 1   
    17     8    40 1   
    18     8    41 1   
    19     8    42 1   
    20     9    10 1   
    21    10    11 1   
    22    10    43 1   
    23    11    12 1   
    24    12    13 1   
    25    12    15 2   
    26    13    14 2   
    27    13    31 1   
    28    15    16 1   
    29    15    24 1   
    30    16    17 ar  
    31    16    23 ar  
    32    17    18 ar  
    33    17    44 1   
    34    18    19 1   
    35    18    20 ar  
    36    19    45 1   
    37    20    21 1   
    38    20    22 ar  
    39    21    46 1   
    40    22    23 ar  
    41    22    47 1   
    42    23    48 1   
    43    24    25 1   
    44    25    26 ar  
    45    25    31 ar  
    46    26    27 ar  
    47    26    49 1   
    48    27    28 1   
    49    27    29 ar  
    50    28    50 1   
    51    29    30 ar  
    52    29    51 1   
    53    30    31 ar  
    54    30    32 1   
    55    32    52 1   
@<TRIPOS>SUBSTRUCTURE
     1 QCT         1 TEMP              0 ****  ****    0 ROOT
