@<TRIPOS>MOLECULE
QCU
   22    23     1     0     0
SMALL
abcg2


@<TRIPOS>ATOM
      1 CAD         28.7300    44.3710    -3.4040 ca         1 QCU      -0.111000
      2 CAC         28.2850    45.3840    -4.2590 ca         1 QCU      -0.109000
      3 CAA         27.0980    45.1690    -4.9360 ca         1 QCU       0.005600
      4 NAG         26.3960    45.9550    -5.8360 n          1 QCU      -0.298000
      5 CAK         26.7900    47.2680    -6.3010 c3         1 QCU       0.108300
      6 CAH         25.2490    45.2960    -6.2450 c          1 QCU       0.594000
      7 OAL         24.4050    45.7060    -7.0360 o          1 QCU      -0.569000
      8 NAI         25.2460    44.0800    -5.5820 n          1 QCU      -0.298000
      9 CAJ         24.2090    43.0800    -5.7180 c3         1 QCU       0.108300
     10 CAB         26.3670    43.9800    -4.7730 ca         1 QCU       0.005600
     11 CAF         26.8050    42.9760    -3.9280 ca         1 QCU      -0.109000
     12 CAE         28.0050    43.1910    -3.2410 ca         1 QCU      -0.111000
     13 H1          29.6550    44.5080    -2.8590 ha         1 QCU       0.116000
     14 H2          28.8480    46.2990    -4.3850 ha         1 QCU       0.122000
     15 H3          26.8780    47.9580    -5.4610 h1         1 QCU       0.051367
     16 H4          27.7470    47.2160    -6.8220 h1         1 QCU       0.051367
     17 H5          26.0260    47.6280    -6.9850 h1         1 QCU       0.051367
     18 H6          23.7270    42.8970    -4.7560 h1         1 QCU       0.051367
     19 H7          23.4710    43.4500    -6.4250 h1         1 QCU       0.051367
     20 H8          24.6290    42.1440    -6.0900 h1         1 QCU       0.051367
     21 H9          26.2430    42.0600    -3.8020 ha         1 QCU       0.122000
     22 H10         28.3740    42.4250    -2.5720 ha         1 QCU       0.116000
@<TRIPOS>BOND
     1     1     2 ar  
     2     1    12 ar  
     3     1    13 1   
     4     2     3 ar  
     5     2    14 1   
     6     3     4 1   
     7     3    10 ar  
     8     4     5 1   
     9     4     6 1   
    10     5    15 1   
    11     5    16 1   
    12     5    17 1   
    13     6     7 2   
    14     6     8 1   
    15     8     9 1   
    16     8    10 1   
    17     9    18 1   
    18     9    19 1   
    19     9    20 1   
    20    10    11 ar  
    21    11    12 ar  
    22    11    21 1   
    23    12    22 1   
@<TRIPOS>SUBSTRUCTURE
     1 QCU         1 TEMP              0 ****  ****    0 ROOT
