@<TRIPOS>MOLECULE
QCU
   22    23     1     0     0
SMALL
No Charge or Current Charge


@<TRIPOS>ATOM
      1 CAD         28.7240    44.3970    -3.3240 ca         1 QCU      -0.111000
      2 CAC         28.2690    45.4010    -4.2050 ca         1 QCU      -0.109000
      3 CAA         27.0190    45.2270    -4.8160 ca         1 QCU       0.005600
      4 NAG         26.4640    45.9070    -5.9360 n          1 QCU      -0.298000
      5 CAK         26.7690    47.3000    -6.3050 c3         1 QCU       0.108300
      6 CAH         25.3790    45.1870    -6.4540 c          1 QCU       0.594000
      7 OAL         24.6330    45.5200    -7.3660 o          1 QCU      -0.569000
      8 NAI         25.3030    44.0250    -5.6740 n          1 QCU      -0.298000
      9 CAJ         24.1730    43.0820    -5.7190 c3         1 QCU       0.108300
     10 CAB         26.2960    44.0510    -4.6550 ca         1 QCU       0.005600
     11 CAF         26.7830    42.9980    -3.8680 ca         1 QCU      -0.109000
     12 CAE         27.9840    43.2020    -3.1560 ca         1 QCU      -0.111000
     13 H1          29.6750    44.5190    -2.8110 ha         1 QCU       0.116000
     14 H2          28.8760    46.2790    -4.4090 ha         1 QCU       0.122000
     15 H3          27.1940    47.8310    -5.4440 h1         1 QCU       0.051367
     16 H4          27.4930    47.3110    -7.1290 h1         1 QCU       0.051367
     17 H5          25.8530    47.8160    -6.6220 h1         1 QCU       0.051367
     18 H6          23.9920    42.6660    -4.7200 h1         1 QCU       0.051367
     19 H7          23.2650    43.5960    -6.0580 h1         1 QCU       0.051367
     20 H8          24.4060    42.2650    -6.4140 h1         1 QCU       0.051367
     21 H9          26.2590    42.0470    -3.8160 ha         1 QCU       0.122000
     22 H10         28.3720    42.4130    -2.5140 ha         1 QCU       0.116000
@<TRIPOS>BOND
     1     1     2 ar  
     2     1    12 ar  
     3     1    13 1   
     4     2     3 ar  
     5     2    14 1   
     6     3     4 1   
     7     3    10 ar  
     8     4     5 1   
     9     4     6 1   
    10     5    15 1   
    11     5    16 1   
    12     5    17 1   
    13     6     7 2   
    14     6     8 1   
    15     8     9 1   
    16     8    10 1   
    17     9    18 1   
    18     9    19 1   
    19     9    20 1   
    20    10    11 ar  
    21    11    12 ar  
    22    11    21 1   
    23    12    22 1   
@<TRIPOS>SUBSTRUCTURE
     1 QCU         1 TEMP              0 ****  ****    0 ROOT
