@<TRIPOS>MOLECULE
QCV
   17    17     1     0     0
SMALL
No Charge or Current Charge


@<TRIPOS>ATOM
      1 C1           4.0320    -0.5470     0.4450 c2         1 QCV       0.468100
      2 C2           1.8130     0.1860    -0.0660 ca         1 QCV       0.166400
      3 C3           1.1760    -1.0700    -0.1030 ca         1 QCV      -0.131000
      4 O1          -3.1640     0.9750     0.0290 o          1 QCV      -0.400000
      5 O2          -3.0330    -1.2020    -0.0360 o          1 QCV      -0.400000
      6 C4          -0.2280    -1.1590    -0.0830 ca         1 QCV      -0.034500
      7 C5          -1.0180     0.0130    -0.0330 ca         1 QCV      -0.190200
      8 C6          -0.3750     1.2720    -0.0090 ca         1 QCV      -0.034500
      9 C7           1.0290     1.3500    -0.0290 ca         1 QCV      -0.131000
     10 N1           3.2170     0.3180    -0.0950 ne         1 QCV      -0.570100
     11 N2          -2.5140    -0.0780    -0.0130 no         1 QCV       0.696200
     12 H1           3.6620    -1.4120     0.9900 h4         1 QCV      -0.007700
     13 H2           5.1050    -0.3930     0.3830 h4         1 QCV      -0.007700
     14 H3           1.7590    -1.9850    -0.1580 ha         1 QCV       0.135000
     15 H4          -0.6910    -2.1450    -0.1120 ha         1 QCV       0.153000
     16 H6          -0.9520     2.1940     0.0250 ha         1 QCV       0.153000
     17 H7           1.5120     2.3240    -0.0120 ha         1 QCV       0.135000
@<TRIPOS>BOND
     1     1    10 2   
     2     1    12 1   
     3     1    13 1   
     4     2     3 ar  
     5     2     9 ar  
     6     2    10 1   
     7     3     6 ar  
     8     3    14 1   
     9     4    11 1   
    10     5    11 1   
    11     6     7 ar  
    12     6    15 1   
    13     7     8 ar  
    14     7    11 1   
    15     8     9 ar  
    16     8    16 1   
    17     9    17 1   
@<TRIPOS>SUBSTRUCTURE
     1 QCV         1 TEMP              0 ****  ****    0 ROOT
