@<TRIPOS>MOLECULE
QCV
   17    17     1     0     0
SMALL
bcc


@<TRIPOS>ATOM
      1 C1           3.9120    -0.4700     0.5110 c2         1 QCV       0.468100
      2 C2           1.7970     0.1380    -0.1450 ca         1 QCV       0.166400
      3 C3           1.1510    -1.0990    -0.1960 ca         1 QCV      -0.149000
      4 O1          -3.0260     0.9600     0.1610 o          1 QCV      -0.210000
      5 O2          -2.9290    -1.1620    -0.0340 o          1 QCV      -0.210000
      6 C4          -0.2280    -1.1720    -0.1420 ca         1 QCV      -0.052500
      7 C5          -0.9620     0.0010    -0.0300 ca         1 QCV      -0.190200
      8 C6          -0.3400     1.2430     0.0120 ca         1 QCV      -0.052500
      9 C7           1.0360     1.3060    -0.0610 ca         1 QCV      -0.149000
     10 N1           3.1830     0.2560    -0.2230 ne         1 QCV      -0.570100
     11 N2          -2.4090    -0.0720     0.0360 no         1 QCV       0.316200
     12 H1           3.5230    -1.1690     1.2540 h4         1 QCV      -0.007700
     13 H2           4.9900    -0.3970     0.4170 h4         1 QCV      -0.007700
     14 H3           1.7280    -2.0080    -0.3010 ha         1 QCV       0.153000
     15 H4          -0.7140    -2.1360    -0.1850 ha         1 QCV       0.171000
     16 H6          -0.9150     2.1540     0.0930 ha         1 QCV       0.171000
     17 H7           1.5340     2.2670    -0.0440 ha         1 QCV       0.153000
@<TRIPOS>BOND
     1     1    10 2   
     2     1    12 1   
     3     1    13 1   
     4     2     3 ar  
     5     2     9 ar  
     6     2    10 1   
     7     3     6 ar  
     8     3    14 1   
     9     4    11 1   
    10     5    11 1   
    11     6     7 ar  
    12     6    15 1   
    13     7     8 ar  
    14     7    11 1   
    15     8     9 ar  
    16     8    16 1   
    17     9    17 1   
@<TRIPOS>SUBSTRUCTURE
     1 QCV         1 TEMP              0 ****  ****    0 ROOT
