@<TRIPOS>MOLECULE
QCW
   32    33     1     0     0
SMALL
abcg2


@<TRIPOS>ATOM
      1 C10         43.6100    16.3120     7.8280 cc         1 QCW      -0.020000
      2 C17         41.2330    18.9440    10.0740 c3         1 QCW       0.130300
      3 C20         40.7700    18.2860    11.3460 ca         1 QCW      -0.121300
      4 C21         39.6840    17.4120    11.3490 ca         1 QCW      -0.090000
      5 C01         39.9510    14.9070     4.9310 c3         1 QCW       0.100300
      6 N05         40.5120    15.6690     6.0210 ns         1 QCW      -0.499900
      7 C07         41.8020    15.5820     6.3500 c          1 QCW       0.621300
      8 O08         42.5830    14.8450     5.7540 o          1 QCW      -0.633100
      9 C09         42.2880    16.4240     7.4910 cd         1 QCW      -0.302400
     10 C12         44.1660    17.0550     8.8800 cc         1 QCW      -0.309000
     11 C14         43.3510    17.8980     9.5620 cd         1 QCW      -0.012400
     12 N16         42.0440    18.0330     9.2540 n          1 QCW      -0.257000
     13 C23         39.2880    16.7900    12.5240 ca         1 QCW      -0.112500
     14 C25         39.9690    17.0330    13.7100 ca         1 QCW      -0.096000
     15 C27         41.0460    17.9080    13.7170 ca         1 QCW      -0.112500
     16 C29         41.4410    18.5300    12.5400 ca         1 QCW      -0.090000
     17 C31         41.4250    17.3180     8.2320 c          1 QCW       0.570200
     18 O32         40.2220    17.4830     8.0250 o          1 QCW      -0.593000
     19 H1          44.2360    15.6320     7.2670 ha         1 QCW       0.217000
     20 H2          41.8480    19.8160    10.2970 h1         1 QCW       0.075700
     21 H3          40.3930    19.2850     9.4750 h1         1 QCW       0.075700
     22 H4          39.1460    17.2190    10.4300 ha         1 QCW       0.119500
     23 H5          38.8810    15.0950     4.9020 h1         1 QCW       0.037367
     24 H6          40.3780    15.1970     3.9700 h1         1 QCW       0.037367
     25 H7          40.1110    13.8370     5.0650 h1         1 QCW       0.037367
     26 H8          39.9260    16.3110     6.5330 hn         1 QCW       0.351500
     27 H9          45.2080    16.9720     9.1470 ha         1 QCW       0.207000
     28 H10         43.7130    18.5060    10.3790 h4         1 QCW       0.202000
     29 H11         38.4430    16.1150    12.5130 ha         1 QCW       0.116500
     30 H12         39.6610    16.5440    14.6240 ha         1 QCW       0.115000
     31 H13         41.5780    18.1090    14.6370 ha         1 QCW       0.116500
     32 H14         42.2760    19.2200    12.5600 ha         1 QCW       0.119500
@<TRIPOS>BOND
     1     1     9 2   
     2     1    10 1   
     3     1    19 1   
     4     2     3 1   
     5     2    12 1   
     6     2    20 1   
     7     2    21 1   
     8     3     4 ar  
     9     3    16 ar  
    10     4    13 ar  
    11     4    22 1   
    12     5     6 1   
    13     5    23 1   
    14     5    24 1   
    15     5    25 1   
    16     6     7 1   
    17     6    26 1   
    18     7     8 2   
    19     7     9 1   
    20     9    17 1   
    21    10    11 2   
    22    10    27 1   
    23    11    12 1   
    24    11    28 1   
    25    12    17 1   
    26    13    14 ar  
    27    13    29 1   
    28    14    15 ar  
    29    14    30 1   
    30    15    16 ar  
    31    15    31 1   
    32    16    32 1   
    33    17    18 2   
@<TRIPOS>SUBSTRUCTURE
     1 QCW         1 TEMP              0 ****  ****    0 ROOT
