@<TRIPOS>MOLECULE
QCW
   32    33     1     0     0
SMALL
No Charge or Current Charge


@<TRIPOS>ATOM
      1 C10         43.7060    16.3130     7.7460 cc         1 QCW      -0.020000
      2 C17         41.2060    18.9160    10.0800 c3         1 QCW       0.130300
      3 C20         40.7500    18.2740    11.3860 ca         1 QCW      -0.121300
      4 C21         39.6260    17.4250    11.4040 ca         1 QCW      -0.090000
      5 C01         39.8920    14.9070     4.8910 c3         1 QCW       0.100300
      6 N05         40.5550    15.6420     5.9690 ns         1 QCW      -0.499900
      7 C07         41.8880    15.5540     6.2780 c          1 QCW       0.621300
      8 O08         42.6290    14.8220     5.6360 o          1 QCW      -0.633100
      9 C09         42.3610    16.3900     7.4190 cd         1 QCW      -0.302400
     10 C12         44.2270    17.0830     8.8290 cc         1 QCW      -0.309000
     11 C14         43.4030    17.9070     9.5540 cd         1 QCW      -0.012400
     12 N16         42.0500    18.0170     9.2550 n          1 QCW      -0.257000
     13 C23         39.2080    16.8280    12.6060 ca         1 QCW      -0.112500
     14 C25         39.9100    17.0770    13.7970 ca         1 QCW      -0.096000
     15 C27         41.0310    17.9230    13.7860 ca         1 QCW      -0.112500
     16 C29         41.4510    18.5210    12.5840 ca         1 QCW      -0.090000
     17 C31         41.4490    17.2840     8.1990 c          1 QCW       0.570200
     18 O32         40.2520    17.3950     7.9590 o          1 QCW      -0.593000
     19 H1          44.3920    15.6700     7.1940 ha         1 QCW       0.217000
     20 H2          41.7780    19.8250    10.3050 h1         1 QCW       0.075700
     21 H3          40.3270    19.2470     9.5120 h1         1 QCW       0.075700
     22 H4          39.0770    17.2250    10.4860 ha         1 QCW       0.119500
     23 H5          38.8260    15.1690     4.8730 h1         1 QCW       0.037367
     24 H6          40.3470    15.1730     3.9290 h1         1 QCW       0.037367
     25 H7          39.9970    13.8280     5.0600 h1         1 QCW       0.037367
     26 H8          40.0080    16.2720     6.5500 hn         1 QCW       0.351500
     27 H9          45.2860    17.0050     9.0710 ha         1 QCW       0.207000
     28 H10         43.7300    18.5160    10.3940 h4         1 QCW       0.202000
     29 H11         38.3390    16.1720    12.6130 ha         1 QCW       0.116500
     30 H12         39.5850    16.6150    14.7270 ha         1 QCW       0.115000
     31 H13         41.5750    18.1170    14.7070 ha         1 QCW       0.116500
     32 H14         42.3200    19.1740    12.5870 ha         1 QCW       0.119500
@<TRIPOS>BOND
     1     1     9 2   
     2     1    10 1   
     3     1    19 1   
     4     2     3 1   
     5     2    12 1   
     6     2    20 1   
     7     2    21 1   
     8     3     4 ar  
     9     3    16 ar  
    10     4    13 ar  
    11     4    22 1   
    12     5     6 1   
    13     5    23 1   
    14     5    24 1   
    15     5    25 1   
    16     6     7 1   
    17     6    26 1   
    18     7     8 2   
    19     7     9 1   
    20     9    17 1   
    21    10    11 2   
    22    10    27 1   
    23    11    12 1   
    24    11    28 1   
    25    12    17 1   
    26    13    14 ar  
    27    13    29 1   
    28    14    15 ar  
    29    14    30 1   
    30    15    16 ar  
    31    15    31 1   
    32    16    32 1   
    33    17    18 2   
@<TRIPOS>SUBSTRUCTURE
     1 QCW         1 TEMP              0 ****  ****    0 ROOT
