@<TRIPOS>MOLECULE
QCY
   53    57     1     0     0
SMALL
No Charge or Current Charge


@<TRIPOS>ATOM
      1 C1          -6.7100     0.8850     0.6030 ca         1 QCY      -0.223000
      2 C2          -6.0570     1.7910    -0.2150 ca         1 QCY      -0.052200
      3 C3          -6.7700     2.8470    -0.8160 ca         1 QCY      -0.086000
      4 C4          -8.1540     2.9630    -0.5770 ca         1 QCY      -0.046000
      5 C5          -8.8130     2.0320     0.2540 ca         1 QCY      -0.066000
      6 C6          -8.0890     0.9830     0.8530 ca         1 QCY      -0.036000
      7 C7          -4.2900     0.4370     0.4300 cc         1 QCY       0.252500
      8 C8          -2.9380    -0.1280     0.4110 ce         1 QCY      -0.362600
      9 C9          -2.6130    -1.4520     0.3170 cf         1 QCY       0.006800
     10 C10          6.3900     1.3760     1.0730 ca         1 QCY      -0.214000
     11 C11          6.8370     0.5480     0.0580 ca         1 QCY      -0.057200
     12 C12          8.0750     0.7960    -0.5690 ca         1 QCY      -0.080000
     13 C13          8.8440     1.9010    -0.1510 ca         1 QCY      -0.047000
     14 C14          8.3790     2.7420     0.8810 ca         1 QCY      -0.064000
     15 C15          7.1430     2.4820     1.5030 ca         1 QCY      -0.040000
     16 C16          4.8410    -0.4880     0.6170 cc         1 QCY       0.261500
     17 C17          3.6980    -1.3950     0.4800 ce         1 QCY      -0.349600
     18 C19          1.2870    -3.2960     0.1630 ca         1 QCY       0.020000
     19 C20          1.1830    -1.9050     0.3620 ca         1 QCY      -0.158800
     20 C21         -0.0980    -1.3150     0.4110 ca         1 QCY       0.011000
     21 C22         -1.2720    -2.0890     0.2630 ca         1 QCY      -0.158800
     22 C23         -1.1400    -3.4830     0.0660 ca         1 QCY       0.242100
     23 C24          0.1300    -4.0760     0.0180 ca         1 QCY      -0.215000
     24 O1          -2.2430    -4.2730    -0.0820 oh         1 QCY      -0.512100
     25 S1           4.8190     0.8880     1.7490 ss         1 QCY       0.288800
     26 S2          -5.6370    -0.3630     1.2810 ss         1 QCY       0.327800
     27 N1           5.9560    -0.4860    -0.2300 na         1 QCY      -0.071500
     28 N2          -4.7000     1.5290    -0.3460 na         1 QCY      -0.079500
     29 C25          6.2040    -1.4040    -1.3610 c3         1 QCY       0.028900
     30 C26         -3.8580     2.3190    -1.2680 c3         1 QCY       0.030900
     31 H3          -6.2750     3.5740    -1.4570 ha         1 QCY       0.146000
     32 H4          -8.7180     3.7730    -1.0350 ha         1 QCY       0.155000
     33 H5          -9.8810     2.1270     0.4350 ha         1 QCY       0.156000
     34 H6          -8.5930     0.2650     1.4980 ha         1 QCY       0.155000
     35 H2          -2.1480     0.6200     0.4180 ha         1 QCY       0.203000
     36 H7          -3.4480    -2.1560     0.2700 ha         1 QCY       0.204000
     37 H13          9.8010     2.1050    -0.6260 ha         1 QCY       0.156000
     38 H14          8.9780     3.5930     1.2000 ha         1 QCY       0.156000
     39 H15          6.7820     3.1260     2.3030 ha         1 QCY       0.152000
     40 H17          3.9760    -2.4270     0.2730 ha         1 QCY       0.214000
     41 H19          2.2560    -3.7850     0.1230 ha         1 QCY       0.131000
     42 H21         -0.1700    -0.2440     0.5700 ha         1 QCY       0.118000
     43 H24          0.2330    -5.1470    -0.1340 ha         1 QCY       0.149000
     44 HA3          7.0420    -2.0680    -1.1190 h1         1 QCY       0.089367
     45 HA2          5.3150    -2.0100    -1.5700 h1         1 QCY       0.089367
     46 HA1          6.4460    -0.8260    -2.2620 h1         1 QCY       0.089367
     47 HB3         -3.7160     3.3280    -0.8630 h1         1 QCY       0.085033
     48 HB2         -2.8790     1.8450    -1.4000 h1         1 QCY       0.085033
     49 HB1         -4.3450     2.3860    -2.2490 h1         1 QCY       0.085033
     50 H1          -1.9450    -5.1990    -0.2090 ho         1 QCY       0.508000
     51 C18          2.3790    -1.0500     0.5230 cf         1 QCY      -0.005200
     52 H12          8.4470     0.1540    -1.3640 ha         1 QCY       0.149000
     53 H18          2.1470     0.0050     0.6950 ha         1 QCY       0.179000
@<TRIPOS>BOND
     1     1     2 ar  
     2     1     6 ar  
     3     1    26 1   
     4     2     3 ar  
     5     2    28 1   
     6     3     4 ar  
     7     3    31 1   
     8     4     5 ar  
     9     4    32 1   
    10     5     6 ar  
    11     5    33 1   
    12     6    34 1   
    13     7     8 1   
    14     7    26 1   
    15     7    28 2   
    16     8     9 2   
    17     8    35 1   
    18     9    21 1   
    19     9    36 1   
    20    10    11 ar  
    21    10    15 ar  
    22    10    25 1   
    23    11    12 ar  
    24    11    27 1   
    25    12    13 ar  
    26    12    52 1   
    27    13    14 ar  
    28    13    37 1   
    29    14    15 ar  
    30    14    38 1   
    31    15    39 1   
    32    16    17 1   
    33    16    25 1   
    34    16    27 2   
    35    17    40 1   
    36    17    51 2   
    37    18    19 ar  
    38    18    23 ar  
    39    18    41 1   
    40    19    20 ar  
    41    19    51 1   
    42    20    21 ar  
    43    20    42 1   
    44    21    22 ar  
    45    22    23 ar  
    46    22    24 1   
    47    23    43 1   
    48    24    50 1   
    49    27    29 1   
    50    28    30 1   
    51    29    44 1   
    52    29    45 1   
    53    29    46 1   
    54    30    47 1   
    55    30    48 1   
    56    30    49 1   
    57    51    53 1   
@<TRIPOS>SUBSTRUCTURE
     1 QCY         1 TEMP              0 ****  ****    0 ROOT
