@<TRIPOS>MOLECULE
QCY
   53    57     1     0     0
SMALL
abcg2


@<TRIPOS>ATOM
      1 C1          -6.7070     0.6080     0.1180 ca         1 QCY      -0.223000
      2 C2          -5.9950     1.7970    -0.0140 ca         1 QCY      -0.052200
      3 C3          -6.6560     3.0200    -0.0410 ca         1 QCY      -0.086000
      4 C4          -8.0340     3.0080     0.0620 ca         1 QCY      -0.046000
      5 C5          -8.7460     1.8110     0.1880 ca         1 QCY      -0.066000
      6 C6          -8.0910     0.5950     0.2180 ca         1 QCY      -0.036000
      7 C7          -4.2730     0.2980    -0.0190 cc         1 QCY       0.252500
      8 C8          -2.9210    -0.1660    -0.0340 ce         1 QCY      -0.362600
      9 C9          -2.6130    -1.4790    -0.0750 cf         1 QCY       0.006800
     10 C10          6.0630     1.7020     0.1620 ca         1 QCY      -0.214000
     11 C11          6.7710     0.5080     0.0620 ca         1 QCY      -0.057200
     12 C12          8.1610     0.5040     0.0430 ca         1 QCY      -0.080000
     13 C13          8.8060     1.7240     0.1200 ca         1 QCY      -0.047000
     14 C14          8.0930     2.9210     0.2150 ca         1 QCY      -0.064000
     15 C15          6.7100     2.9260     0.2370 ca         1 QCY      -0.040000
     16 C16          4.6360    -0.3010     0.0520 cc         1 QCY       0.261500
     17 C17          3.5800    -1.2620     0.0300 ce         1 QCY      -0.349600
     18 C19          1.2700    -3.2030    -0.0330 ca         1 QCY       0.020000
     19 C20          1.1480    -1.8010    -0.0330 ca         1 QCY      -0.158800
     20 C21         -0.1300    -1.2540    -0.0510 ca         1 QCY       0.011000
     21 C22         -1.2810    -2.0420    -0.0670 ca         1 QCY      -0.158800
     22 C23         -1.1220    -3.4440    -0.0720 ca         1 QCY       0.242100
     23 C24          0.1600    -4.0070    -0.0530 ca         1 QCY      -0.215000
     24 O1          -2.2150    -4.1950    -0.0920 oh         1 QCY      -0.512100
     25 S1           4.3610     1.3900     0.1850 ss         1 QCY       0.288800
     26 S2          -5.6260    -0.7420     0.1530 ss         1 QCY       0.327800
     27 N1           5.9290    -0.5930    -0.0110 na         1 QCY      -0.071500
     28 N2          -4.6270     1.5740    -0.1060 na         1 QCY      -0.079500
     29 C25          6.4760    -1.9400    -0.1240 c3         1 QCY       0.028900
     30 C26         -3.6800     2.6720    -0.2590 c3         1 QCY       0.030900
     31 H3          -6.1240     3.9560    -0.1350 ha         1 QCY       0.146000
     32 H4          -8.5710     3.9460     0.0460 ha         1 QCY       0.155000
     33 H5          -9.8240     1.8360     0.2650 ha         1 QCY       0.156000
     34 H6          -8.6340    -0.3340     0.3210 ha         1 QCY       0.155000
     35 H2          -2.1460     0.5860     0.0100 ha         1 QCY       0.203000
     36 H7          -3.4220    -2.1990    -0.1200 ha         1 QCY       0.204000
     37 H13          9.8870     1.7480     0.1080 ha         1 QCY       0.156000
     38 H14          8.6280     3.8590     0.2740 ha         1 QCY       0.156000
     39 H15          6.1510     3.8490     0.3150 ha         1 QCY       0.152000
     40 H17          3.8620    -2.3050     0.0630 ha         1 QCY       0.214000
     41 H19          2.2450    -3.6730    -0.0210 ha         1 QCY       0.131000
     42 H21         -0.2230    -0.1750    -0.0530 ha         1 QCY       0.118000
     43 H24          0.2710    -5.0840    -0.0550 ha         1 QCY       0.149000
     44 HA3          6.8240    -2.2780     0.8490 h1         1 QCY       0.089367
     45 HA2          5.7270    -2.6230    -0.5050 h1         1 QCY       0.089367
     46 HA1          7.3030    -1.9250    -0.8260 h1         1 QCY       0.089367
     47 HB3         -3.3550     3.0220     0.7180 h1         1 QCY       0.085033
     48 HB2         -2.8250     2.3500    -0.8420 h1         1 QCY       0.085033
     49 HB1         -4.1590     3.4810    -0.7990 h1         1 QCY       0.085033
     50 H1          -2.0000    -5.1370    -0.0860 ho         1 QCY       0.508000
     51 C18          2.2790    -0.9060    -0.0150 cf         1 QCY      -0.005200
     52 H12          8.7280    -0.4130    -0.0260 ha         1 QCY       0.149000
     53 H18          2.0180     0.1470    -0.0480 ha         1 QCY       0.179000
@<TRIPOS>BOND
     1     1     2 ar  
     2     1     6 ar  
     3     1    26 1   
     4     2     3 ar  
     5     2    28 1   
     6     3     4 ar  
     7     3    31 1   
     8     4     5 ar  
     9     4    32 1   
    10     5     6 ar  
    11     5    33 1   
    12     6    34 1   
    13     7     8 1   
    14     7    26 1   
    15     7    28 2   
    16     8     9 2   
    17     8    35 1   
    18     9    21 1   
    19     9    36 1   
    20    10    11 ar  
    21    10    15 ar  
    22    10    25 1   
    23    11    12 ar  
    24    11    27 1   
    25    12    13 ar  
    26    12    52 1   
    27    13    14 ar  
    28    13    37 1   
    29    14    15 ar  
    30    14    38 1   
    31    15    39 1   
    32    16    17 1   
    33    16    25 1   
    34    16    27 2   
    35    17    40 1   
    36    17    51 2   
    37    18    19 ar  
    38    18    23 ar  
    39    18    41 1   
    40    19    20 ar  
    41    19    51 1   
    42    20    21 ar  
    43    20    42 1   
    44    21    22 ar  
    45    22    23 ar  
    46    22    24 1   
    47    23    43 1   
    48    24    50 1   
    49    27    29 1   
    50    28    30 1   
    51    29    44 1   
    52    29    45 1   
    53    29    46 1   
    54    30    47 1   
    55    30    48 1   
    56    30    49 1   
    57    51    53 1   
@<TRIPOS>SUBSTRUCTURE
     1 QCY         1 TEMP              0 ****  ****    0 ROOT
