@<TRIPOS>MOLECULE
QCZ
   43    45     1     0     0
SMALL
bcc


@<TRIPOS>ATOM
      1 C10         16.6100    -7.4230     8.4000 cc         1 QCZ       0.042000
      2 C13         18.2820    -6.9670    10.0050 cd         1 QCZ       0.100600
      3 C20         18.7000    -4.8060    12.7510 ca         1 QCZ      -0.104000
      4 C22         18.0810    -4.2760    13.8750 ca         1 QCZ      -0.130500
      5 C24         17.3530    -3.0970    13.7750 ca         1 QCZ      -0.112000
      6 C26         17.2540    -2.4510    12.5500 ca         1 QCZ      -0.130500
      7 C28         17.8730    -2.9830    11.4270 ca         1 QCZ      -0.104000
      8 C01         14.8910    -4.0550     5.3290 c3         1 QCZ       0.100300
      9 N05         15.7410    -4.5080     6.4030 ns         1 QCZ      -0.564900
     10 C07         15.7040    -5.7640     6.8510 c          1 QCZ       0.689300
     11 O08         14.9430    -6.6080     6.3860 o          1 QCZ      -0.634100
     12 C09         16.6420    -6.1290     7.9630 cd         1 QCZ      -0.310400
     13 C12         17.4410    -7.8810     9.4380 cc         1 QCZ      -0.292200
     14 N15         18.3410    -5.6920     9.5980 n          1 QCZ      -0.319000
     15 C16         19.2520    -4.7760    10.3050 c3         1 QCZ       0.132300
     16 C19         18.5970    -4.1690    11.5170 ca         1 QCZ      -0.127300
     17 C30         17.5410    -5.1780     8.5760 c          1 QCZ       0.715700
     18 O31         17.6440    -3.9930     8.2730 o          1 QCZ      -0.652500
     19 C32         17.4580    -9.2660     9.9840 c          1 QCZ       0.703300
     20 O33         18.0250    -9.5160    11.0380 o          1 QCZ      -0.611100
     21 N34         16.8200   -10.2030     9.2600 ns         1 QCZ      -0.542900
     22 C36         16.7560   -11.5650     9.6780 cx         1 QCZ       0.042700
     23 C38         15.4810   -12.3020     9.4260 cx         1 QCZ      -0.130900
     24 C41         15.8660   -11.9260    10.8230 cx         1 QCZ      -0.130900
     25 H1          15.8990    -8.0870     7.9230 ha         1 QCZ       0.164000
     26 H2          18.9480    -7.2440    10.8110 h4         1 QCZ       0.178000
     27 H3          19.2810    -5.7160    12.8440 ha         1 QCZ       0.139000
     28 H4          18.1730    -4.7790    14.8280 ha         1 QCZ       0.136000
     29 H5          16.8700    -2.6810    14.6490 ha         1 QCZ       0.134000
     30 H6          16.6960    -1.5270    12.4670 ha         1 QCZ       0.136000
     31 H7          17.7910    -2.4740    10.4760 ha         1 QCZ       0.139000
     32 H8          15.0790    -2.9970     5.1700 h1         1 QCZ       0.038700
     33 H9          15.0970    -4.5850     4.3980 h1         1 QCZ       0.038700
     34 H10         13.8350    -4.1850     5.5680 h1         1 QCZ       0.038700
     35 H11         16.3950    -3.8670     6.8300 hn         1 QCZ       0.351500
     36 H12         20.1280    -5.3550    10.5920 h1         1 QCZ       0.077200
     37 H13         19.5830    -4.0130     9.6060 h1         1 QCZ       0.077200
     38 H14         16.5150    -9.9920     8.3240 hn         1 QCZ       0.324500
     39 H15         17.6790   -12.1260     9.5750 h1         1 QCZ       0.085700
     40 H16         14.6680   -11.7570     8.9620 hc         1 QCZ       0.078950
     41 H17         15.5540   -13.3390     9.1270 hc         1 QCZ       0.078950
     42 H18         15.3140   -11.1260    11.2990 hc         1 QCZ       0.078950
     43 H19         16.2060   -12.7020    11.4960 hc         1 QCZ       0.078950
@<TRIPOS>BOND
     1     1    12 2   
     2     1    13 1   
     3     1    25 1   
     4     2    13 2   
     5     2    14 1   
     6     2    26 1   
     7     3     4 ar  
     8     3    16 ar  
     9     3    27 1   
    10     4     5 ar  
    11     4    28 1   
    12     5     6 ar  
    13     5    29 1   
    14     6     7 ar  
    15     6    30 1   
    16     7    16 ar  
    17     7    31 1   
    18     8     9 1   
    19     8    32 1   
    20     8    33 1   
    21     8    34 1   
    22     9    10 1   
    23     9    35 1   
    24    10    11 2   
    25    10    12 1   
    26    12    17 1   
    27    13    19 1   
    28    14    15 1   
    29    14    17 1   
    30    15    16 1   
    31    15    36 1   
    32    15    37 1   
    33    17    18 2   
    34    19    20 2   
    35    19    21 1   
    36    21    22 1   
    37    21    38 1   
    38    22    23 1   
    39    22    24 1   
    40    22    39 1   
    41    23    24 1   
    42    23    40 1   
    43    23    41 1   
    44    24    42 1   
    45    24    43 1   
@<TRIPOS>SUBSTRUCTURE
     1 QCZ         1 TEMP              0 ****  ****    0 ROOT
