@<TRIPOS>MOLECULE
QCZ
   43    45     1     0     0
SMALL
No Charge or Current Charge


@<TRIPOS>ATOM
      1 C10         16.6600    -7.4880     8.3490 cc         1 QCZ      -0.008000
      2 C13         18.2960    -6.8950    10.0350 cd         1 QCZ       0.050600
      3 C20         19.0770    -4.6100    12.8090 ca         1 QCZ      -0.086000
      4 C22         18.5280    -4.1450    14.0170 ca         1 QCZ      -0.112500
      5 C24         17.5170    -3.1700    14.0020 ca         1 QCZ      -0.094000
      6 C26         17.0560    -2.6580    12.7780 ca         1 QCZ      -0.112500
      7 C28         17.6040    -3.1220    11.5690 ca         1 QCZ      -0.086000
      8 C01         14.9370    -4.1060     5.1430 c3         1 QCZ       0.100300
      9 N05         15.7490    -4.5990     6.2570 ns         1 QCZ      -0.497900
     10 C07         15.7480    -5.8890     6.7200 c          1 QCZ       0.622300
     11 O08         15.0350    -6.7360     6.1990 o          1 QCZ      -0.634100
     12 C09         16.6520    -6.1860     7.8710 cd         1 QCZ      -0.310400
     13 C12         17.4990    -7.8620     9.4610 cc         1 QCZ      -0.292200
     14 N15         18.3220    -5.5830     9.5790 n          1 QCZ      -0.252000
     15 C16         19.2030    -4.6070    10.2650 c3         1 QCZ       0.132300
     16 C19         18.6170    -4.1010    11.5780 ca         1 QCZ      -0.127300
     17 C30         17.5180    -5.1450     8.5000 c          1 QCZ       0.573200
     18 O31         17.5510    -3.9800     8.1240 o          1 QCZ      -0.577000
     19 C32         17.5530    -9.2380    10.0300 c          1 QCZ       0.636300
     20 O33         18.2700    -9.5370    10.9750 o          1 QCZ      -0.611100
     21 N34         16.7400   -10.1690     9.4230 ns         1 QCZ      -0.475900
     22 C36         16.6440   -11.5470     9.8250 cx         1 QCZ       0.042700
     23 C38         15.4970   -12.3590     9.2750 cx         1 QCZ      -0.130900
     24 C41         15.4970   -11.9360    10.7240 cx         1 QCZ      -0.130900
     25 H1          16.0230    -8.2350     7.8810 ha         1 QCZ       0.214000
     26 H2          18.9560    -7.0760    10.8800 h4         1 QCZ       0.228000
     27 H3          19.8590    -5.3660    12.8340 ha         1 QCZ       0.121000
     28 H4          18.8860    -4.5420    14.9650 ha         1 QCZ       0.118000
     29 H5          17.0930    -2.8100    14.9380 ha         1 QCZ       0.116000
     30 H6          16.2730    -1.9030    12.7650 ha         1 QCZ       0.118000
     31 H7          17.2390    -2.7210    10.6260 ha         1 QCZ       0.121000
     32 H8          15.1360    -3.0380     4.9910 h1         1 QCZ       0.038700
     33 H9          15.1930    -4.6560     4.2290 h1         1 QCZ       0.038700
     34 H10         13.8730    -4.2470     5.3710 h1         1 QCZ       0.038700
     35 H11         16.3680    -3.9550     6.7420 hn         1 QCZ       0.351500
     36 H12         20.1710    -5.0870    10.4600 h1         1 QCZ       0.077200
     37 H13         19.4190    -3.7510     9.6120 h1         1 QCZ       0.077200
     38 H14         16.1840    -9.8490     8.6440 hn         1 QCZ       0.324500
     39 H15         17.6040   -12.0450     9.9670 h1         1 QCZ       0.085700
     40 H16         14.7930   -11.8700     8.6060 hc         1 QCZ       0.078950
     41 H17         15.6830   -13.4070     9.0530 hc         1 QCZ       0.078950
     42 H18         14.7990   -11.1590    11.0280 hc         1 QCZ       0.078950
     43 H19         15.6840   -12.6990    11.4760 hc         1 QCZ       0.078950
@<TRIPOS>BOND
     1     1    12 2   
     2     1    13 1   
     3     1    25 1   
     4     2    13 2   
     5     2    14 1   
     6     2    26 1   
     7     3     4 ar  
     8     3    16 ar  
     9     3    27 1   
    10     4     5 ar  
    11     4    28 1   
    12     5     6 ar  
    13     5    29 1   
    14     6     7 ar  
    15     6    30 1   
    16     7    16 ar  
    17     7    31 1   
    18     8     9 1   
    19     8    32 1   
    20     8    33 1   
    21     8    34 1   
    22     9    10 1   
    23     9    35 1   
    24    10    11 2   
    25    10    12 1   
    26    12    17 1   
    27    13    19 1   
    28    14    15 1   
    29    14    17 1   
    30    15    16 1   
    31    15    36 1   
    32    15    37 1   
    33    17    18 2   
    34    19    20 2   
    35    19    21 1   
    36    21    22 1   
    37    21    38 1   
    38    22    23 1   
    39    22    24 1   
    40    22    39 1   
    41    23    24 1   
    42    23    40 1   
    43    23    41 1   
    44    24    42 1   
    45    24    43 1   
@<TRIPOS>SUBSTRUCTURE
     1 QCZ         1 TEMP              0 ****  ****    0 ROOT
