@<TRIPOS>MOLECULE
QD0
   36    37     1     0     0
SMALL
No Charge or Current Charge


@<TRIPOS>ATOM
      1 C01          5.9040    -0.3810    -0.3270 c3         1 QD0      -0.132400
      2 C02          4.4560    -0.6530    -0.0460 cc         1 QD0       0.278300
      3 N03          3.7070    -1.4780    -0.7590 nd         1 QD0      -0.361300
      4 O04          2.4170    -1.4080    -0.1180 os         1 QD0      -0.067700
      5 C05          2.5050    -0.5350     0.9350 cd         1 QD0       0.195300
      6 C06          1.2980    -0.2690     1.7810 c3         1 QD0      -0.195700
      7 C07          0.2830     0.5880     1.0230 c          1 QD0       0.619100
      8 N08         -0.8010    -0.0280     0.3600 n          1 QD0      -0.398800
      9 C09         -1.7910     0.7560    -0.4310 c5         1 QD0       0.030700
     10 C10         -2.8620     1.4930     0.4390 c          1 QD0       0.593100
     11 N11         -3.5180     2.4290    -0.3320 ns         1 QD0      -0.498900
     12 C12         -4.5790     3.3060     0.1680 c3         1 QD0       0.095300
     13 O13         -3.1040     1.3210     1.6270 o          1 QD0      -0.600100
     14 C14         -2.4650    -0.3800    -1.2590 c5         1 QD0      -0.084400
     15 C15         -2.5240    -1.5480    -0.2440 c5         1 QD0       0.156300
     16 C17         -1.1020    -1.4810     0.3890 c5         1 QD0       0.071000
     17 O18          0.4360     1.8000     0.9570 o          1 QD0      -0.581100
     18 C19          3.7640    -0.0440     1.0120 cc         1 QD0      -0.234000
     19 O16         -2.7850    -2.7940    -0.8940 oh         1 QD0      -0.648000
     20 H011         6.0650     0.6830    -0.5360 hc         1 QD0       0.055700
     21 H012         6.5230    -0.6570     0.5340 hc         1 QD0       0.055700
     22 H013         6.2560    -0.9530    -1.1940 hc         1 QD0       0.055700
     23 H19          4.1670     0.6650     1.7260 ha         1 QD0       0.152000
     24 H061         0.8720    -1.2300     2.0780 hc         1 QD0       0.082700
     25 H062         1.6110     0.2780     2.6770 hc         1 QD0       0.082700
     26 H09         -1.3000     1.4920    -1.0810 h1         1 QD0       0.080700
     27 H171        -0.3650    -2.0400    -0.2040 h1         1 QD0       0.053700
     28 H172        -1.1140    -1.8820     1.4110 h1         1 QD0       0.053700
     29 H141        -3.4540    -0.1060    -1.6450 hc         1 QD0       0.070700
     30 H142        -1.8460    -0.6450    -2.1250 hc         1 QD0       0.070700
     31 H11         -3.2440     2.5070    -1.3050 hn         1 QD0       0.316500
     32 H121        -5.4140     2.6990     0.5410 h1         1 QD0       0.041367
     33 H122        -4.1890     3.9300     0.9820 h1         1 QD0       0.041367
     34 H123        -4.9350     3.9520    -0.6450 h1         1 QD0       0.041367
     35 H15         -3.2890    -1.3460     0.5200 h1         1 QD0       0.060700
     36 H16         -2.8590    -3.4770    -0.1910 ho         1 QD0       0.450000
@<TRIPOS>BOND
     1     1     2 1   
     2     1    20 1   
     3     1    21 1   
     4     1    22 1   
     5     2     3 2   
     6     2    18 1   
     7     3     4 1   
     8     4     5 1   
     9     5     6 1   
    10     5    18 2   
    11     6     7 1   
    12     6    24 1   
    13     6    25 1   
    14     7     8 1   
    15     7    17 2   
    16     8     9 1   
    17     8    16 1   
    18     9    10 1   
    19     9    14 1   
    20     9    26 1   
    21    10    11 1   
    22    10    13 2   
    23    11    12 1   
    24    11    31 1   
    25    12    32 1   
    26    12    33 1   
    27    12    34 1   
    28    14    15 1   
    29    14    29 1   
    30    14    30 1   
    31    15    16 1   
    32    15    19 1   
    33    15    35 1   
    34    16    27 1   
    35    16    28 1   
    36    18    23 1   
    37    19    36 1   
@<TRIPOS>SUBSTRUCTURE
     1 QD0         1 TEMP              0 ****  ****    0 ROOT
