@<TRIPOS>MOLECULE
QD0
   36    37     1     0     0
SMALL
abcg2


@<TRIPOS>ATOM
      1 C01          5.9480     0.7920     0.5690 c3         1 QD0      -0.132400
      2 C02          4.6280     0.2030     0.2240 cc         1 QD0       0.278300
      3 N03          4.3500    -0.1700    -0.9920 nd         1 QD0      -0.361300
      4 O04          3.0770    -0.6630    -0.9640 os         1 QD0      -0.067700
      5 C05          2.5910    -0.5820     0.2760 cd         1 QD0       0.195300
      6 C06          1.2140    -1.0730     0.5100 c3         1 QD0      -0.195700
      7 C07          0.1760    -0.1440    -0.0990 c          1 QD0       0.619100
      8 N08         -1.0750    -0.6180    -0.1600 n          1 QD0      -0.398800
      9 C09         -2.1350     0.2060    -0.7080 c5         1 QD0       0.030700
     10 C10         -2.3900     1.4200     0.1820 c          1 QD0       0.593100
     11 N11         -2.8670     2.4890    -0.4620 ns         1 QD0      -0.498900
     12 C12         -3.2470     3.7050     0.2170 c3         1 QD0       0.095300
     13 O13         -2.2190     1.3850     1.3920 o          1 QD0      -0.600100
     14 C14         -3.3400    -0.7400    -0.7250 c5         1 QD0      -0.084400
     15 C15         -3.0660    -1.7020     0.4230 c5         1 QD0       0.156300
     16 C17         -1.5470    -1.8960     0.3470 c5         1 QD0       0.071000
     17 O18          0.4690     0.9700    -0.5060 o          1 QD0      -0.581100
     18 C19          3.5260    -0.0420     1.0880 cc         1 QD0      -0.234000
     19 O16         -3.7980    -2.8860     0.2600 oh         1 QD0      -0.648000
     20 H011         5.8280     1.8060     0.9510 hc         1 QD0       0.055700
     21 H012         6.4370     0.2050     1.3460 hc         1 QD0       0.055700
     22 H013         6.6020     0.8270    -0.3010 hc         1 QD0       0.055700
     23 H19          3.4540     0.1560     2.1440 ha         1 QD0       0.152000
     24 H061         1.1000    -2.0880     0.1210 hc         1 QD0       0.082700
     25 H062         1.0420    -1.1380     1.5870 hc         1 QD0       0.082700
     26 H09         -1.8830     0.5360    -1.7180 h1         1 QD0       0.080700
     27 H171        -1.3130    -2.7090    -0.3470 h1         1 QD0       0.053700
     28 H172        -1.1110    -2.1320     1.3180 h1         1 QD0       0.053700
     29 H141        -4.2910    -0.2170    -0.6350 hc         1 QD0       0.070700
     30 H142        -3.3490    -1.2940    -1.6670 hc         1 QD0       0.070700
     31 H11         -2.9500     2.4600    -1.4640 hn         1 QD0       0.316500
     32 H121        -3.9910     3.5140     0.9900 h1         1 QD0       0.041367
     33 H122        -2.3900     4.1960     0.6800 h1         1 QD0       0.041367
     34 H123        -3.6770     4.3840    -0.5120 h1         1 QD0       0.041367
     35 H15         -3.3120    -1.2170     1.3750 h1         1 QD0       0.060700
     36 H16         -3.7660    -3.3830     1.0830 ho         1 QD0       0.450000
@<TRIPOS>BOND
     1     1     2 1   
     2     1    20 1   
     3     1    21 1   
     4     1    22 1   
     5     2     3 2   
     6     2    18 1   
     7     3     4 1   
     8     4     5 1   
     9     5     6 1   
    10     5    18 2   
    11     6     7 1   
    12     6    24 1   
    13     6    25 1   
    14     7     8 1   
    15     7    17 2   
    16     8     9 1   
    17     8    16 1   
    18     9    10 1   
    19     9    14 1   
    20     9    26 1   
    21    10    11 1   
    22    10    13 2   
    23    11    12 1   
    24    11    31 1   
    25    12    32 1   
    26    12    33 1   
    27    12    34 1   
    28    14    15 1   
    29    14    29 1   
    30    14    30 1   
    31    15    16 1   
    32    15    19 1   
    33    15    35 1   
    34    16    27 1   
    35    16    28 1   
    36    18    23 1   
    37    19    36 1   
@<TRIPOS>SUBSTRUCTURE
     1 QD0         1 TEMP              0 ****  ****    0 ROOT
