@<TRIPOS>MOLECULE
QD1
   19    20     1     0     0
SMALL
No Charge or Current Charge


@<TRIPOS>ATOM
      1 C02        -24.1920    -2.6650   -10.8500 ca         1 QD1       0.373000
      2 C03        -25.0890    -3.3950   -11.6230 ca         1 QD1      -0.277000
      3 C04        -26.1590    -2.7340   -12.2260 ca         1 QD1       0.396900
      4 C06        -25.5020    -0.6830   -11.3480 ca         1 QD1       0.300000
      5 C07        -25.7140     0.7020   -11.2090 ca         1 QD1      -0.085000
      6 C08        -24.8420     1.4970   -10.4460 ca         1 QD1      -0.086000
      7 C09        -23.7400     0.9100    -9.8110 ca         1 QD1       0.109000
      8 C11        -23.5090    -0.4690    -9.9340 ca         1 QD1      -0.077000
      9 C12        -24.3870    -1.2750   -10.7000 ca         1 QD1      -0.126000
     10 N01        -23.1540    -3.3410   -10.2650 nv         1 QD1      -1.100000
     11 N05        -26.3660    -1.4070   -12.0930 nb         1 QD1      -0.697000
     12 Cl10       -22.6450     1.9030    -8.8580 cl         1 QD1      -0.213000
     13 H031       -24.9710    -4.4650   -11.7630 ha         1 QD1       0.121000
     14 H041       -26.8780    -3.2790   -12.8370 h4         1 QD1       0.017100
     15 H071       -26.5660     1.1630   -11.7010 ha         1 QD1       0.136000
     16 H081       -25.0200     2.5660   -10.3500 ha         1 QD1       0.132000
     17 H111       -22.6440    -0.8940    -9.4340 ha         1 QD1       0.120000
     18 H012       -22.6160    -2.8910    -9.5280 hn         1 QD1       0.477500
     19 H011       -23.1590    -4.3590   -10.2700 hn         1 QD1       0.477500
@<TRIPOS>BOND
     1     1     2 ar  
     2     1     9 ar  
     3     1    10 1   
     4     2     3 ar  
     5     2    13 1   
     6     3    11 ar  
     7     3    14 1   
     8     4     5 ar  
     9     4     9 ar  
    10     4    11 ar  
    11     5     6 ar  
    12     5    15 1   
    13     6     7 ar  
    14     6    16 1   
    15     7     8 ar  
    16     7    12 1   
    17     8     9 ar  
    18     8    17 1   
    19    10    18 1   
    20    10    19 1   
@<TRIPOS>SUBSTRUCTURE
     1 QD1         1 TEMP              0 ****  ****    0 ROOT
