@<TRIPOS>MOLECULE
QD1
   19    20     1     0     0
SMALL
abcg2


@<TRIPOS>ATOM
      1 C02        -24.1830    -2.6950   -10.8380 ca         1 QD1       0.373000
      2 C03        -25.1010    -3.3810   -11.6220 ca         1 QD1      -0.277000
      3 C04        -26.1590    -2.6920   -12.2200 ca         1 QD1       0.396900
      4 C06        -25.4960    -0.6890   -11.3450 ca         1 QD1       0.300000
      5 C07        -25.7030     0.7040   -11.2010 ca         1 QD1      -0.085000
      6 C08        -24.8550     1.4820   -10.4580 ca         1 QD1      -0.086000
      7 C09        -23.7530     0.8790    -9.8260 ca         1 QD1       0.109000
      8 C11        -23.5080    -0.4650    -9.9310 ca         1 QD1      -0.077000
      9 C12        -24.3770    -1.2810   -10.6900 ca         1 QD1      -0.126000
     10 N01        -23.1220    -3.3320   -10.2720 nv         1 QD1      -1.100000
     11 N05        -26.3790    -1.3950   -12.1060 nb         1 QD1      -0.697000
     12 CL10       -22.6720     1.8860    -8.8840 cl         1 QD1      -0.213000
     13 H031       -25.0030    -4.4490   -11.7650 ha         1 QD1       0.121000
     14 H041       -26.8660    -3.2500   -12.8270 h4         1 QD1       0.017100
     15 H071       -26.5570     1.1450   -11.7000 ha         1 QD1       0.136000
     16 H081       -25.0210     2.5450   -10.3540 ha         1 QD1       0.132000
     17 H111       -22.6430    -0.8820    -9.4340 ha         1 QD1       0.120000
     18 H012       -22.6280    -2.9080    -9.5050 hn         1 QD1       0.477500
     19 H011       -23.1270    -4.3390   -10.2680 hn         1 QD1       0.477500
@<TRIPOS>BOND
     1     1     2 ar  
     2     1     9 ar  
     3     1    10 1   
     4     2     3 ar  
     5     2    13 1   
     6     3    11 ar  
     7     3    14 1   
     8     4     5 ar  
     9     4     9 ar  
    10     4    11 ar  
    11     5     6 ar  
    12     5    15 1   
    13     6     7 ar  
    14     6    16 1   
    15     7     8 ar  
    16     7    12 1   
    17     8     9 ar  
    18     8    17 1   
    19    10    18 1   
    20    10    19 1   
@<TRIPOS>SUBSTRUCTURE
     1 QD1         1 TEMP              0 ****  ****    0 ROOT
