@<TRIPOS>MOLECULE
QD2
   62    65     1     0     0
SMALL
abcg2


@<TRIPOS>ATOM
      1 N1         -10.6920   -30.1520    23.8680 nb         1 QD2      -0.775000
      2 N3          -4.2280   -34.3990    24.3580 ns         1 QD2      -0.496900
      3 C4          -9.6980   -29.8370    24.6880 ca         1 QD2       0.450900
      4 C5         -10.4380   -30.3740    22.5950 ca         1 QD2       0.677300
      5 C6         -12.7320   -30.8580    22.3290 c3         1 QD2       0.161900
      6 C7          -7.1470   -27.9230    25.3710 c6         1 QD2       0.177800
      7 C8          -6.2050   -27.7180    26.5330 c6         1 QD2       0.149600
      8 C10         -3.9940   -30.5120    26.0900 ca         1 QD2      -0.120000
      9 C13         -6.3280   -31.5380    25.0350 ca         1 QD2      -0.084000
     10 C17         -2.8230   -36.3680    24.0350 c6         1 QD2      -0.092900
     11 C20         -4.4430   -37.2070    21.8060 c6         1 QD2       0.168300
     12 C21         -4.5630   -35.7910    22.3460 c6         1 QD2      -0.092900
     13 O4          -6.4490   -34.3460    24.7610 o          1 QD2      -0.607100
     14 C16         -4.1990   -35.7480    23.8280 c6         1 QD2       0.109700
     15 N4          -3.1080   -37.7350    22.0140 n3         1 QD2      -0.719600
     16 C19         -2.9520   -39.0390    21.4120 c3         1 QD2       0.154100
     17 C18         -2.7670   -37.7590    23.4230 c6         1 QD2       0.168300
     18 C12         -5.2160   -32.3620    25.1730 ca         1 QD2      -0.149600
     19 C11         -4.0390   -31.8410    25.7020 ca         1 QD2      -0.091000
     20 C14         -6.2850   -30.1890    25.3720 ca         1 QD2       0.228000
     21 C9          -5.0940   -29.6840    25.9260 ca         1 QD2       0.099100
     22 O3          -4.9770   -28.3930    26.3080 os         1 QD2      -0.336100
     23 N2          -7.3800   -29.3470    25.2020 nh         1 QD2      -0.826200
     24 C3          -8.3830   -29.7060    24.2790 ca         1 QD2       0.141000
     25 C2          -8.1110   -29.9100    22.9290 ca         1 QD2       0.041000
     26 O2         -11.4180   -30.7370    21.7900 os         1 QD2      -0.442300
     27 C1          -9.1360   -30.2540    22.0700 ca         1 QD2      -0.339500
     28 S           -8.7220   -30.4980    20.3600 sy         1 QD2       1.159600
     29 O           -7.4750   -29.7900    20.1040 o          1 QD2      -0.541000
     30 O1          -9.8780   -30.1750    19.5420 o          1 QD2      -0.541000
     31 N           -8.3360   -32.0980    20.3290 n7         1 QD2      -0.881300
     32 C           -9.4090   -33.0830    20.3530 c3         1 QD2       0.186100
     33 H1          -3.4050   -33.8360    24.2090 hn         1 QD2       0.312500
     34 H2          -9.9580   -29.6740    25.7290 h4         1 QD2       0.033100
     35 H3         -13.3600   -31.1570    21.4950 h1         1 QD2       0.054367
     36 H4         -12.7780   -31.6150    23.1110 h1         1 QD2       0.054367
     37 H5         -13.0870   -29.9090    22.7320 h1         1 QD2       0.054367
     38 H6          -6.7330   -27.4680    24.4630 h1         1 QD2       0.056200
     39 H7          -8.0950   -27.4280    25.5870 h1         1 QD2       0.056200
     40 H8          -5.9680   -26.6630    26.6490 h1         1 QD2       0.066200
     41 H9          -6.6650   -28.0740    27.4610 h1         1 QD2       0.066200
     42 H10         -3.0910   -30.1000    26.5240 ha         1 QD2       0.130000
     43 H11         -7.2420   -31.9600    24.6380 ha         1 QD2       0.141000
     44 H13         -2.5900   -36.4280    25.1000 hc         1 QD2       0.053200
     45 H14         -5.2090   -37.8460    22.2820 h1         1 QD2       0.033200
     46 H15         -4.6580   -37.2100    20.7340 h1         1 QD2       0.033200
     47 H16         -3.8910   -35.1290    21.7900 hc         1 QD2       0.053200
     48 H17         -5.5810   -35.4270    22.1950 hc         1 QD2       0.053200
     49 H18         -4.9320   -36.3370    24.3850 h1         1 QD2       0.075700
     50 H20         -1.9230   -39.3830    21.5250 h1         1 QD2       0.030700
     51 H21         -3.6090   -39.8050    21.8540 h1         1 QD2       0.030700
     52 H22         -3.1730   -38.9880    20.3450 h1         1 QD2       0.030700
     53 H23         -3.4380   -38.4320    23.9880 h1         1 QD2       0.033200
     54 H24         -1.7580   -38.1620    23.5340 h1         1 QD2       0.033200
     55 H25         -3.1650   -32.4600    25.8560 ha         1 QD2       0.118000
     56 H26         -7.0980   -29.8040    22.5610 ha         1 QD2       0.154000
     57 H27         -7.6300   -32.2740    19.6220 hn         1 QD2       0.485000
     58 H28         -8.9460   -34.0650    20.3010 h1         1 QD2       0.050367
     59 H29         -9.9540   -33.0290    21.2930 h1         1 QD2       0.050367
     60 H30        -10.1140   -32.9840    19.5270 h1         1 QD2       0.050367
     61 C15         -5.3590   -33.7870    24.7520 c          1 QD2       0.615700
     62 H12         -2.0590   -35.7370    23.5670 hc         1 QD2       0.053200
@<TRIPOS>BOND
     1     1     3 ar  
     2     1     4 ar  
     3     2    14 1   
     4     2    33 1   
     5     2    61 1   
     6     3    24 ar  
     7     3    34 1   
     8     4    26 1   
     9     4    27 ar  
    10     5    26 1   
    11     5    35 1   
    12     5    36 1   
    13     5    37 1   
    14     6     7 1   
    15     6    23 1   
    16     6    38 1   
    17     6    39 1   
    18     7    22 1   
    19     7    40 1   
    20     7    41 1   
    21     8    19 ar  
    22     8    21 ar  
    23     8    42 1   
    24     9    18 ar  
    25     9    20 ar  
    26     9    43 1   
    27    10    14 1   
    28    10    17 1   
    29    10    44 1   
    30    10    62 1   
    31    11    12 1   
    32    11    15 1   
    33    11    45 1   
    34    11    46 1   
    35    12    14 1   
    36    12    47 1   
    37    12    48 1   
    38    13    61 2   
    39    14    49 1   
    40    15    16 1   
    41    15    17 1   
    42    16    50 1   
    43    16    51 1   
    44    16    52 1   
    45    17    53 1   
    46    17    54 1   
    47    18    19 ar  
    48    18    61 1   
    49    19    55 1   
    50    20    21 ar  
    51    20    23 1   
    52    21    22 1   
    53    23    24 1   
    54    24    25 ar  
    55    25    27 ar  
    56    25    56 1   
    57    27    28 1   
    58    28    29 2   
    59    28    30 2   
    60    28    31 1   
    61    31    32 1   
    62    31    57 1   
    63    32    58 1   
    64    32    59 1   
    65    32    60 1   
@<TRIPOS>SUBSTRUCTURE
     1 QD2         1 TEMP              0 ****  ****    0 ROOT
