@<TRIPOS>MOLECULE
QD2
   62    65     1     0     0
SMALL
No Charge or Current Charge


@<TRIPOS>ATOM
      1 N1         -11.0730   -29.6640    23.8950 nb         1 QD2      -0.775000
      2 N3          -4.3210   -34.5770    24.1450 ns         1 QD2      -0.496900
      3 C4          -9.9820   -29.4590    24.6750 ca         1 QD2       0.450900
      4 C5         -10.8800   -30.0200    22.6070 ca         1 QD2       0.677300
      5 C6         -13.3230   -30.0370    22.3230 c3         1 QD2       0.161900
      6 C7          -7.3640   -27.9420    25.6100 c6         1 QD2       0.177800
      7 C8          -6.2250   -27.8330    26.6570 c6         1 QD2       0.149600
      8 C10         -4.0060   -30.5710    25.6630 ca         1 QD2      -0.120000
      9 C13         -6.4490   -31.5380    24.6870 ca         1 QD2      -0.084000
     10 C17         -2.9970   -36.6660    24.2630 c6         1 QD2      -0.092900
     11 C20         -3.9570   -37.4450    21.6070 c6         1 QD2       0.168300
     12 C21         -4.1240   -35.9950    22.1150 c6         1 QD2      -0.092900
     13 O4          -6.5390   -34.2630    23.8060 o          1 QD2      -0.607100
     14 C16         -4.2320   -35.9600    23.6580 c6         1 QD2       0.109700
     15 N4          -2.7730   -38.1030    22.2220 n3         1 QD2      -0.719600
     16 C19         -2.5320   -39.4550    21.6730 c3         1 QD2       0.154100
     17 C18         -2.8560   -38.1030    23.7080 c6         1 QD2       0.168300
     18 C12         -5.3200   -32.3910    24.6910 ca         1 QD2      -0.149600
     19 C11         -4.0900   -31.8850    25.1760 ca         1 QD2      -0.091000
     20 C14         -6.3740   -30.2020    25.1380 ca         1 QD2       0.228000
     21 C9          -5.1360   -29.7400    25.6640 ca         1 QD2       0.099100
     22 O3          -5.0150   -28.4710    26.1930 os         1 QD2      -0.336100
     23 N2          -7.5120   -29.3310    25.0680 nh         1 QD2      -0.826200
     24 C3          -8.6410   -29.5830    24.2240 ca         1 QD2       0.141000
     25 C2          -8.4680   -29.9340    22.8740 ca         1 QD2       0.041000
     26 O2         -11.9850   -30.1750    21.8040 os         1 QD2      -0.442300
     27 C1          -9.6010   -30.1830    22.0720 ca         1 QD2      -0.339500
     28 S           -9.4060   -30.6230    20.3660 sy         1 QD2       1.159600
     29 O           -9.0830   -29.4050    19.6220 o          1 QD2      -0.541000
     30 O1         -10.4380   -31.5550    19.9120 o          1 QD2      -0.541000
     31 N           -7.9780   -31.4840    20.3870 n7         1 QD2      -0.881300
     32 C           -7.9780   -32.7970    21.0640 c3         1 QD2       0.186100
     33 H1          -3.4720   -34.1320    24.4640 hn         1 QD2       0.312500
     34 H2         -10.1850   -29.1800    25.7080 h4         1 QD2       0.033100
     35 H3         -14.0600   -30.2070    21.5280 h1         1 QD2       0.054367
     36 H4         -13.5110   -30.7670    23.1210 h1         1 QD2       0.054367
     37 H5         -13.4860   -29.0290    22.7270 h1         1 QD2       0.054367
     38 H6          -7.1490   -27.2420    24.7890 h1         1 QD2       0.056200
     39 H7          -8.2980   -27.6120    26.0890 h1         1 QD2       0.056200
     40 H8          -6.0170   -26.7790    26.8910 h1         1 QD2       0.066200
     41 H9          -6.5440   -28.3300    27.5840 h1         1 QD2       0.066200
     42 H10         -3.0640   -30.1970    26.0550 ha         1 QD2       0.130000
     43 H11         -7.3970   -31.9230    24.3280 ha         1 QD2       0.141000
     44 H13         -3.0830   -36.7020    25.3570 hc         1 QD2       0.053200
     45 H14         -4.8710   -38.0140    21.8350 h1         1 QD2       0.033200
     46 H15         -3.8540   -37.4250    20.5110 h1         1 QD2       0.033200
     47 H16         -3.2700   -35.3890    21.7830 hc         1 QD2       0.053200
     48 H17         -5.0210   -35.5500    21.6640 hc         1 QD2       0.053200
     49 H18         -5.1390   -36.5020    23.9690 h1         1 QD2       0.075700
     50 H20         -1.6170   -39.8890    22.0980 h1         1 QD2       0.030700
     51 H21         -3.3700   -40.1270    21.9020 h1         1 QD2       0.030700
     52 H22         -2.4110   -39.4140    20.5820 h1         1 QD2       0.030700
     53 H23         -3.7150   -38.7040    24.0420 h1         1 QD2       0.033200
     54 H24         -1.9540   -38.5600    24.1400 h1         1 QD2       0.033200
     55 H25         -3.1940   -32.4990    25.2000 ha         1 QD2       0.118000
     56 H26         -7.4620   -30.0050    22.4660 ha         1 QD2       0.154000
     57 H27         -7.8260   -31.6250    19.3890 hn         1 QD2       0.485000
     58 H28         -6.9880   -33.2670    20.9940 h1         1 QD2       0.050367
     59 H29         -8.2240   -32.6950    22.1290 h1         1 QD2       0.050367
     60 H30         -8.7070   -33.4830    20.6120 h1         1 QD2       0.050367
     61 C15         -5.4640   -33.8100    24.1760 c          1 QD2       0.615700
     62 H12         -2.0850   -36.0970    24.0360 hc         1 QD2       0.053200
@<TRIPOS>BOND
     1     1     3 ar  
     2     1     4 ar  
     3     2    14 1   
     4     2    33 1   
     5     2    61 1   
     6     3    24 ar  
     7     3    34 1   
     8     4    26 1   
     9     4    27 ar  
    10     5    26 1   
    11     5    35 1   
    12     5    36 1   
    13     5    37 1   
    14     6     7 1   
    15     6    23 1   
    16     6    38 1   
    17     6    39 1   
    18     7    22 1   
    19     7    40 1   
    20     7    41 1   
    21     8    19 ar  
    22     8    21 ar  
    23     8    42 1   
    24     9    18 ar  
    25     9    20 ar  
    26     9    43 1   
    27    10    14 1   
    28    10    17 1   
    29    10    44 1   
    30    10    62 1   
    31    11    12 1   
    32    11    15 1   
    33    11    45 1   
    34    11    46 1   
    35    12    14 1   
    36    12    47 1   
    37    12    48 1   
    38    13    61 2   
    39    14    49 1   
    40    15    16 1   
    41    15    17 1   
    42    16    50 1   
    43    16    51 1   
    44    16    52 1   
    45    17    53 1   
    46    17    54 1   
    47    18    19 ar  
    48    18    61 1   
    49    19    55 1   
    50    20    21 ar  
    51    20    23 1   
    52    21    22 1   
    53    23    24 1   
    54    24    25 ar  
    55    25    27 ar  
    56    25    56 1   
    57    27    28 1   
    58    28    29 2   
    59    28    30 2   
    60    28    31 1   
    61    31    32 1   
    62    31    57 1   
    63    32    58 1   
    64    32    59 1   
    65    32    60 1   
@<TRIPOS>SUBSTRUCTURE
     1 QD2         1 TEMP              0 ****  ****    0 ROOT
