@<TRIPOS>MOLECULE
QD3
   36    37     1     0     0
SMALL
abcg2


@<TRIPOS>ATOM
      1 C13          3.9660     6.2070    22.4840 c3         1 QD3       0.014900
      2 C16          7.0330     7.4380    17.9340 c3         1 QD3      -0.059400
      3 C17          6.9890     5.9550    17.5960 c3         1 QD3      -0.215400
      4 C18          5.2680     5.8640    23.2090 c3         1 QD3      -0.069400
      5 C19          6.9090     7.5920    22.1770 c3         1 QD3      -0.066400
      6 C20          6.2240     7.0340    23.4230 c3         1 QD3      -0.067400
      7 C1           3.5090     5.9910    19.9050 cc         1 QD3       0.116300
      8 N2           3.9580     6.5170    18.7810 nd         1 QD3      -0.408800
      9 C3           4.1500     6.5210    21.0350 cc         1 QD3      -0.162300
     10 N4           4.8780     7.3900    19.1560 na         1 QD3       0.172800
     11 C5           5.0370     7.4340    20.4990 cd         1 QD3      -0.154300
     12 C6           2.4480     4.9560    19.8650 c3         1 QD3       0.291700
     13 C7           6.2530     5.5870    16.2910 c          1 QD3       0.721000
     14 O8           5.8130     4.4220    16.2150 o          1 QD3      -0.736500
     15 F9           1.9870     4.7550    18.6290 f          1 QD3      -0.116000
     16 F10          2.8840     3.7700    20.3230 f          1 QD3      -0.116000
     17 F11          1.3970     5.2860    20.6330 f          1 QD3      -0.116000
     18 C12          5.6630     8.0720    18.1430 c3         1 QD3       0.076600
     19 C14          5.9870     8.3350    21.2100 c3         1 QD3      -0.000100
     20 O15          6.1940     6.4660    15.4070 o          1 QD3      -0.736500
     21 H24          3.4900     7.0540    22.9900 hc         1 QD3       0.040200
     22 H23          3.2760     5.3710    22.5970 hc         1 QD3       0.040200
     23 H28          7.5250     7.9920    17.1320 hc         1 QD3       0.026700
     24 H29          7.6420     7.5900    18.8300 hc         1 QD3       0.026700
     25 H31          6.5670     5.3860    18.4300 hc         1 QD3       0.024700
     26 H30          8.0210     5.5970    17.5020 hc         1 QD3       0.024700
     27 H32          5.0060     5.4590    24.1900 hc         1 QD3       0.039200
     28 H33          5.7810     5.0590    22.6730 hc         1 QD3       0.039200
     29 H35          7.4260     6.7890    21.6430 hc         1 QD3       0.042200
     30 H34          7.6820     8.2930    22.5000 hc         1 QD3       0.042200
     31 H37          5.6880     7.8450    23.9280 hc         1 QD3       0.026700
     32 H36          7.0050     6.7110    24.1170 hc         1 QD3       0.026700
     33 H21          5.0830     8.0340    17.2240 h1         1 QD3       0.070700
     34 H22          5.7620     9.1210    18.4240 h1         1 QD3       0.070700
     35 H25          6.5930     8.8910    20.4950 hc         1 QD3       0.045700
     36 H26          5.4150     9.0850    21.7670 hc         1 QD3       0.045700
@<TRIPOS>BOND
     1     1     4 1   
     2     1     9 1   
     3     1    21 1   
     4     1    22 1   
     5     2     3 1   
     6     2    18 1   
     7     2    23 1   
     8     2    24 1   
     9     3    13 1   
    10     3    25 1   
    11     3    26 1   
    12     4     6 1   
    13     4    27 1   
    14     4    28 1   
    15     5     6 1   
    16     5    19 1   
    17     5    29 1   
    18     5    30 1   
    19     6    31 1   
    20     6    32 1   
    21     7     8 2   
    22     7     9 1   
    23     7    12 1   
    24     8    10 1   
    25     9    11 2   
    26    10    11 1   
    27    10    18 1   
    28    11    19 1   
    29    12    15 1   
    30    12    16 1   
    31    12    17 1   
    32    13    14 1   
    33    13    20 1   
    34    18    33 1   
    35    18    34 1   
    36    19    35 1   
    37    19    36 1   
@<TRIPOS>SUBSTRUCTURE
     1 QD3         1 TEMP              0 ****  ****    0 ROOT
