@<TRIPOS>MOLECULE
QD3
   36    37     1     0     0
SMALL
No Charge or Current Charge


@<TRIPOS>ATOM
      1 C13          3.8950     6.2680    22.5850 c3         1 QD3       0.014900
      2 C16          7.0230     7.3760    17.8580 c3         1 QD3      -0.059400
      3 C17          7.1200     5.9570    17.2340 c3         1 QD3      -0.215400
      4 C18          5.1930     5.9080    23.3430 c3         1 QD3      -0.069400
      5 C19          6.8970     7.5700    22.2320 c3         1 QD3      -0.066400
      6 C20          6.1990     7.0720    23.5220 c3         1 QD3      -0.067400
      7 C1           3.4410     5.8780    20.0320 cc         1 QD3       0.116300
      8 N2           3.8580     6.2900    18.8470 nd         1 QD3      -0.408800
      9 C3           4.1170     6.5070    21.1100 cc         1 QD3      -0.162300
     10 N4           4.8450     7.2090    19.1600 na         1 QD3       0.172800
     11 C5           5.0060     7.3670    20.5440 cd         1 QD3      -0.154300
     12 C6           2.3450     4.8310    20.2070 c3         1 QD3       0.291700
     13 C7           6.6580     5.9600    15.7650 c          1 QD3       0.721000
     14 O8           5.4860     5.7180    15.5230 o          1 QD3      -0.736500
     15 F9           1.8350     4.4130    19.0230 f          1 QD3      -0.116000
     16 F10          2.8040     3.7270    20.8430 f          1 QD3      -0.116000
     17 F11          1.3050     5.3090    20.9290 f          1 QD3      -0.116000
     18 C12          5.5830     7.9080    18.0880 c3         1 QD3       0.076600
     19 C14          5.9750     8.2990    21.2300 c3         1 QD3      -0.000100
     20 O15          7.4790     6.2460    14.9070 o          1 QD3      -0.736500
     21 H24          3.4490     7.1610    23.0380 hc         1 QD3       0.040200
     22 H23          3.1770     5.4580    22.7480 hc         1 QD3       0.040200
     23 H28          7.5550     8.0830    17.2100 hc         1 QD3       0.026700
     24 H29          7.5590     7.3770    18.8150 hc         1 QD3       0.026700
     25 H31          6.4870     5.3000    17.8430 hc         1 QD3       0.024700
     26 H30          8.1850     5.7010    17.2850 hc         1 QD3       0.024700
     27 H32          4.9130     5.5480    24.3400 hc         1 QD3       0.039200
     28 H33          5.6870     5.0680    22.8400 hc         1 QD3       0.039200
     29 H35          7.3880     6.7280    21.7290 hc         1 QD3       0.042200
     30 H34          7.6950     8.2640    22.5240 hc         1 QD3       0.042200
     31 H37          5.6970     7.9150    24.0130 hc         1 QD3       0.026700
     32 H36          6.9790     6.7370    24.2170 hc         1 QD3       0.026700
     33 H21          5.0090     7.8410    17.1570 h1         1 QD3       0.070700
     34 H22          5.6350     8.9700    18.3570 h1         1 QD3       0.070700
     35 H25          6.6050     8.8170    20.4980 hc         1 QD3       0.045700
     36 H26          5.4220     9.0860    21.7580 hc         1 QD3       0.045700
@<TRIPOS>BOND
     1     1     4 1   
     2     1     9 1   
     3     1    21 1   
     4     1    22 1   
     5     2     3 1   
     6     2    18 1   
     7     2    23 1   
     8     2    24 1   
     9     3    13 1   
    10     3    25 1   
    11     3    26 1   
    12     4     6 1   
    13     4    27 1   
    14     4    28 1   
    15     5     6 1   
    16     5    19 1   
    17     5    29 1   
    18     5    30 1   
    19     6    31 1   
    20     6    32 1   
    21     7     8 2   
    22     7     9 1   
    23     7    12 1   
    24     8    10 1   
    25     9    11 2   
    26    10    11 1   
    27    10    18 1   
    28    11    19 1   
    29    12    15 1   
    30    12    16 1   
    31    12    17 1   
    32    13    14 1   
    33    13    20 1   
    34    18    33 1   
    35    18    34 1   
    36    19    35 1   
    37    19    36 1   
@<TRIPOS>SUBSTRUCTURE
     1 QD3         1 TEMP              0 ****  ****    0 ROOT
