@<TRIPOS>MOLECULE
QD4
   44    47     1     0     0
SMALL
No Charge or Current Charge


@<TRIPOS>ATOM
      1 N1         -22.6830     6.0700    29.0880 n          1 QD4      -0.257400
      2 N3         -18.2700     5.8020    23.9450 nb         1 QD4      -0.653000
      3 C4         -20.5180     3.7600    27.6890 c          1 QD4       0.604100
      4 C5         -19.3790     5.3370    26.0630 ca         1 QD4      -0.076000
      5 C6         -19.2930     5.2780    24.6570 ca         1 QD4       0.298900
      6 C7         -17.2850     6.4260    24.6310 ca         1 QD4       0.356900
      7 C8         -17.2890     6.5620    26.0330 ca         1 QD4      -0.089000
      8 C10        -16.2700     7.3970    28.0830 ca         1 QD4      -0.104000
      9 C13        -18.3590     6.0150    26.7760 ca         1 QD4      -0.001000
     10 C15        -21.4420     2.9380    30.7670 ca         1 QD4      -0.068000
     11 C17        -21.9400     4.5720    32.4900 ca         1 QD4      -0.081000
     12 C16        -21.4650     3.3070    32.1190 ca         1 QD4       0.109000
     13 C18        -22.3870     5.4710    31.5070 ca         1 QD4      -0.125000
     14 C19        -22.3970     5.1070    30.1390 ca         1 QD4      -0.018000
     15 C          -22.4060     7.4580    29.1470 c          1 QD4       0.649100
     16 O          -22.8380     8.2570    28.3340 o          1 QD4      -0.643100
     17 N          -21.5740     7.8930    30.1120 nt         1 QD4      -0.591000
     18 C14        -21.8930     3.8350    29.7780 ca         1 QD4      -0.087300
     19 C3         -21.8970     3.4090    28.3080 c6         1 QD4      -0.092400
     20 C2         -23.1660     4.0170    27.6360 c6         1 QD4      -0.087400
     21 C1         -23.2800     5.5550    27.8230 c6         1 QD4       0.116000
     22 O1         -19.5040     3.1660    28.0390 o          1 QD4      -0.568100
     23 N2         -20.4930     4.7320    26.7020 ns         1 QD4      -0.162000
     24 C12        -18.3850     6.1910    28.1790 ca         1 QD4      -0.082000
     25 C11        -17.3410     6.8760    28.8260 ca         1 QD4      -0.091000
     26 C9         -16.2440     7.2450    26.6870 ca         1 QD4      -0.089000
     27 H1         -20.0680     4.7760    24.0780 h4         1 QD4       0.017100
     28 H2         -16.4730     6.8390    24.0340 h4         1 QD4       0.022100
     29 H3         -15.4650     7.9270    28.5880 ha         1 QD4       0.117000
     30 H4         -21.0700     1.9550    30.4890 ha         1 QD4       0.132000
     31 H5         -21.9600     4.8560    33.5390 ha         1 QD4       0.135000
     32 H6         -22.7700     6.4370    31.8280 ha         1 QD4       0.137000
     33 H7         -21.3410     8.8730    30.1570 hn         1 QD4       0.317000
     34 H8         -21.1660     7.2330    30.7550 hn         1 QD4       0.317000
     35 H9         -21.9660     2.3130    28.2790 hc         1 QD4       0.076700
     36 H10        -23.2130     3.7550    26.5700 hc         1 QD4       0.057200
     37 H11        -24.0490     3.5520    28.0960 hc         1 QD4       0.057200
     38 H12        -22.7890     6.0540    26.9750 h1         1 QD4       0.065700
     39 H13        -24.3390     5.8460    27.7820 h1         1 QD4       0.065700
     40 H14        -21.3960     5.0830    26.4110 hn         1 QD4       0.153000
     41 H15        -19.2060     5.8130    28.7800 ha         1 QD4       0.127000
     42 H16        -17.3660     7.0040    29.9060 ha         1 QD4       0.122000
     43 H17        -15.4170     7.6620    26.1160 ha         1 QD4       0.117000
     44 Cl         -20.9010     2.1830    33.3480 cl         1 QD4      -0.204000
@<TRIPOS>BOND
     1     1    14 1   
     2     1    15 1   
     3     1    21 1   
     4     2     5 ar  
     5     2     6 ar  
     6     3    19 1   
     7     3    22 2   
     8     3    23 1   
     9     4     5 ar  
    10     4     9 ar  
    11     4    23 1   
    12     5    27 1   
    13     6     7 ar  
    14     6    28 1   
    15     7     9 ar  
    16     7    26 ar  
    17     8    25 ar  
    18     8    26 ar  
    19     8    29 1   
    20     9    24 ar  
    21    10    12 ar  
    22    10    18 ar  
    23    10    30 1   
    24    11    12 ar  
    25    11    13 ar  
    26    11    31 1   
    27    12    44 1   
    28    13    14 ar  
    29    13    32 1   
    30    14    18 ar  
    31    15    16 2   
    32    15    17 1   
    33    17    33 1   
    34    17    34 1   
    35    18    19 1   
    36    19    20 1   
    37    19    35 1   
    38    20    21 1   
    39    20    36 1   
    40    20    37 1   
    41    21    38 1   
    42    21    39 1   
    43    23    40 1   
    44    24    25 ar  
    45    24    41 1   
    46    25    42 1   
    47    26    43 1   
@<TRIPOS>SUBSTRUCTURE
     1 QD4         1 TEMP              0 ****  ****    0 ROOT
