@<TRIPOS>MOLECULE
QD4
   44    47     1     0     0
SMALL
abcg2


@<TRIPOS>ATOM
      1 N1         -22.3240     6.1340    29.6630 n          1 QD4      -0.257400
      2 N3         -17.3800     4.4450    24.4380 nb         1 QD4      -0.653000
      3 C4         -20.5110     4.3130    27.9160 c          1 QD4       0.604100
      4 C5         -19.1000     4.9930    26.0310 ca         1 QD4      -0.076000
      5 C6         -18.5540     4.1850    25.0640 ca         1 QD4       0.298900
      6 C7         -16.7210     5.5250    24.7940 ca         1 QD4       0.356900
      7 C8         -17.1790     6.4410    25.7690 ca         1 QD4      -0.089000
      8 C10        -16.9410     8.4890    27.0270 ca         1 QD4      -0.104000
      9 C13        -18.4250     6.1840    26.4070 ca         1 QD4      -0.001000
     10 C15        -22.0850     2.5500    30.4870 ca         1 QD4      -0.068000
     11 C17        -22.5820     3.7590    32.5230 ca         1 QD4      -0.081000
     12 C16        -22.3190     2.5720    31.8560 ca         1 QD4       0.109000
     13 C18        -22.6040     4.9490    31.8060 ca         1 QD4      -0.125000
     14 C19        -22.3300     4.9500    30.4400 ca         1 QD4      -0.018000
     15 C          -21.6220     7.2740    29.9970 c          1 QD4       0.649100
     16 O          -21.7290     8.3060    29.3300 o          1 QD4      -0.643100
     17 N          -20.8110     7.2120    31.0910 nt         1 QD4      -0.591000
     18 C14        -22.0840     3.7410    29.7770 ca         1 QD4      -0.087300
     19 C3         -21.9150     3.8120    28.2880 c6         1 QD4      -0.092400
     20 C2         -23.0640     4.6960    27.7660 c6         1 QD4      -0.087400
     21 C1         -22.9740     6.1140    28.3360 c6         1 QD4       0.116000
     22 O1         -19.6050     4.3920    28.7320 o          1 QD4      -0.568100
     23 N2         -20.3480     4.6360    26.6040 ns         1 QD4      -0.162000
     24 C12        -18.9190     7.1240    27.3400 ca         1 QD4      -0.082000
     25 C11        -18.1920     8.2480    27.6400 ca         1 QD4      -0.091000
     26 C9         -16.4470     7.6040    26.1050 ca         1 QD4      -0.089000
     27 H1         -19.0730     3.2810    24.7660 h4         1 QD4       0.017100
     28 H2         -15.7740     5.7170    24.2980 h4         1 QD4       0.022100
     29 H3         -16.3820     9.3800    27.2850 ha         1 QD4       0.117000
     30 H4         -21.9010     1.6140    29.9770 ha         1 QD4       0.132000
     31 H5         -22.7860     3.7580    33.5850 ha         1 QD4       0.135000
     32 H6         -22.8300     5.8760    32.3140 ha         1 QD4       0.137000
     33 H7         -20.1790     7.9890    31.1990 hn         1 QD4       0.317000
     34 H8         -20.4920     6.3240    31.4440 hn         1 QD4       0.317000
     35 H9         -22.0060     2.8110    27.8570 hc         1 QD4       0.076700
     36 H10        -23.0820     4.7550    26.6780 hc         1 QD4       0.057200
     37 H11        -23.9960     4.2190    28.0700 hc         1 QD4       0.057200
     38 H12        -22.3800     6.7460    27.6820 h1         1 QD4       0.065700
     39 H13        -23.9700     6.5560    28.4040 h1         1 QD4       0.065700
     40 H14        -21.0870     4.3920    25.9620 hn         1 QD4       0.153000
     41 H15        -19.8730     6.9600    27.8140 ha         1 QD4       0.127000
     42 H16        -18.5820     8.9620    28.3530 ha         1 QD4       0.122000
     43 H17        -15.4960     7.7820    25.6170 ha         1 QD4       0.117000
     44 CL         -22.2990     1.0680    32.7530 cl         1 QD4      -0.204000
@<TRIPOS>BOND
     1     1    14 1   
     2     1    15 1   
     3     1    21 1   
     4     2     5 ar  
     5     2     6 ar  
     6     3    19 1   
     7     3    22 2   
     8     3    23 1   
     9     4     5 ar  
    10     4     9 ar  
    11     4    23 1   
    12     5    27 1   
    13     6     7 ar  
    14     6    28 1   
    15     7     9 ar  
    16     7    26 ar  
    17     8    25 ar  
    18     8    26 ar  
    19     8    29 1   
    20     9    24 ar  
    21    10    12 ar  
    22    10    18 ar  
    23    10    30 1   
    24    11    12 ar  
    25    11    13 ar  
    26    11    31 1   
    27    12    44 1   
    28    13    14 ar  
    29    13    32 1   
    30    14    18 ar  
    31    15    16 2   
    32    15    17 1   
    33    17    33 1   
    34    17    34 1   
    35    18    19 1   
    36    19    20 1   
    37    19    35 1   
    38    20    21 1   
    39    20    36 1   
    40    20    37 1   
    41    21    38 1   
    42    21    39 1   
    43    23    40 1   
    44    24    25 ar  
    45    24    41 1   
    46    25    42 1   
    47    26    43 1   
@<TRIPOS>SUBSTRUCTURE
     1 QD4         1 TEMP              0 ****  ****    0 ROOT
