@<TRIPOS>MOLECULE
QD5
   47    50     1     0     0
SMALL
No Charge or Current Charge


@<TRIPOS>ATOM
      1 C10         43.5230    16.7380     8.1440 cc         1 QD5      -0.008000
      2 C13         42.8570    18.2270     9.9340 cd         1 QD5       0.051600
      3 C20         39.1800    17.3240    11.4250 ca         1 QD5      -0.095000
      4 C22         38.7510    16.7020    12.6230 ca         1 QD5      -0.100000
      5 C24         39.2110    17.1650    13.8740 ca         1 QD5      -0.110000
      6 C26         40.0950    18.2510    13.8830 ca         1 QD5      -0.055200
      7 C01         40.2530    15.1970     4.7350 c3         1 QD5       0.100300
      8 N05         40.7020    15.9310     5.9190 ns         1 QD5      -0.498900
      9 C07         41.9820    15.9210     6.4120 c          1 QD5       0.622300
     10 O08         42.8550    15.2660     5.8590 o          1 QD5      -0.636100
     11 C09         42.2320    16.7410     7.6350 cd         1 QD5      -0.308400
     12 C12         43.8530    17.4950     9.3250 cc         1 QD5      -0.298200
     13 N15         41.5560    18.2670     9.4460 n          1 QD5      -0.249000
     14 C16         40.5490    19.0800    10.1710 c3         1 QD5       0.143300
     15 C19         40.0740    18.4190    11.4590 ca         1 QD5      -0.072300
     16 N27         40.6850    18.8840    14.9670 na         1 QD5      -0.221700
     17 C29         41.5130    19.9380    14.5240 cc         1 QD5      -0.150100
     18 C31         41.3950    19.9080    13.1420 cd         1 QD5      -0.254200
     19 C33         40.5060    18.8500    12.7250 ca         1 QD5      -0.081800
     20 C34         41.1600    17.5360     8.3020 c          1 QD5       0.571200
     21 O35         40.0020    17.5710     7.9040 o          1 QD5      -0.566000
     22 C36         45.2130    17.5310     9.9320 c          1 QD5       0.635300
     23 O37         45.4760    18.1790    10.9350 o          1 QD5      -0.612100
     24 N38         46.1740    16.7810     9.2900 ns         1 QD5      -0.474900
     25 C40         47.5430    16.6790     9.7180 cx         1 QD5       0.042700
     26 C42         48.3890    15.5900     9.1050 cx         1 QD5      -0.130900
     27 C45         47.9320    15.4740    10.5390 cx         1 QD5      -0.130900
     28 H1          44.2930    16.1530     7.6470 ha         1 QD5       0.213000
     29 H2          43.0020    18.8200    10.8350 h4         1 QD5       0.226000
     30 H3          38.8170    16.9510    10.4700 ha         1 QD5       0.118000
     31 H4          38.0630    15.8600    12.5780 ha         1 QD5       0.115000
     32 H5          38.8880    16.6940    14.8000 ha         1 QD5       0.115000
     33 H6          39.1850    15.3860     4.5710 h1         1 QD5       0.038033
     34 H7          40.8190    15.5310     3.8560 h1         1 QD5       0.038033
     35 H8          40.4120    14.1210     4.8850 h1         1 QD5       0.038033
     36 H9          40.0330    16.4980     6.4330 hn         1 QD5       0.352500
     37 H10         40.9900    20.0570    10.4000 h1         1 QD5       0.069700
     38 H11         39.6790    19.2850     9.5350 h1         1 QD5       0.069700
     39 H12         40.5380    18.6230    15.9380 hn         1 QD5       0.350000
     40 H13         42.0790    20.5830    15.1920 h4         1 QD5       0.215000
     41 H14         41.9050    20.6030    12.4770 ha         1 QD5       0.207000
     42 H15         45.8830    16.2790     8.4640 hn         1 QD5       0.323500
     43 H16         48.0200    17.6340     9.9430 h1         1 QD5       0.084700
     44 H17         47.9300    14.9300     8.3730 hc         1 QD5       0.078700
     45 H18         49.4380    15.8100     8.9230 hc         1 QD5       0.078700
     46 H19         47.1620    14.7430    10.7700 hc         1 QD5       0.078700
     47 H20         48.6730    15.6180    11.3210 hc         1 QD5       0.078700
@<TRIPOS>BOND
     1     1    11 2   
     2     1    12 1   
     3     1    28 1   
     4     2    12 2   
     5     2    13 1   
     6     2    29 1   
     7     3     4 ar  
     8     3    15 ar  
     9     3    30 1   
    10     4     5 ar  
    11     4    31 1   
    12     5     6 ar  
    13     5    32 1   
    14     6    16 1   
    15     6    19 ar  
    16     7     8 1   
    17     7    33 1   
    18     7    34 1   
    19     7    35 1   
    20     8     9 1   
    21     8    36 1   
    22     9    10 2   
    23     9    11 1   
    24    11    20 1   
    25    12    22 1   
    26    13    14 1   
    27    13    20 1   
    28    14    15 1   
    29    14    37 1   
    30    14    38 1   
    31    15    19 ar  
    32    16    17 1   
    33    16    39 1   
    34    17    18 2   
    35    17    40 1   
    36    18    19 1   
    37    18    41 1   
    38    20    21 2   
    39    22    23 2   
    40    22    24 1   
    41    24    25 1   
    42    24    42 1   
    43    25    26 1   
    44    25    27 1   
    45    25    43 1   
    46    26    27 1   
    47    26    44 1   
    48    26    45 1   
    49    27    46 1   
    50    27    47 1   
@<TRIPOS>SUBSTRUCTURE
     1 QD5         1 TEMP              0 ****  ****    0 ROOT
