@<TRIPOS>MOLECULE
QD5
   47    50     1     0     0
SMALL
bcc


@<TRIPOS>ATOM
      1 C10         43.5700    16.6690     8.4890 cc         1 QD5       0.042000
      2 C13         43.1910    18.5810     9.8280 cd         1 QD5       0.101600
      3 C20         38.6820    18.9900    10.9860 ca         1 QD5      -0.113000
      4 C22         37.7830    18.4740    11.9310 ca         1 QD5      -0.118000
      5 C24         38.2340    17.8610    13.0820 ca         1 QD5      -0.128000
      6 C26         39.6120    17.7870    13.2680 ca         1 QD5      -0.055200
      7 C01         40.0090    14.4020     6.0570 c3         1 QD5       0.100300
      8 N05         40.5250    15.4270     6.9310 ns         1 QD5      -0.565900
      9 C07         41.8160    15.4850     7.2660 c          1 QD5       0.689300
     10 O08         42.6390    14.6670     6.8620 o          1 QD5      -0.636100
     11 C09         42.2440    16.6020     8.1670 cd         1 QD5      -0.308400
     12 C12         44.0830    17.6770     9.3250 cc         1 QD5      -0.298200
     13 N15         41.8830    18.5350     9.5430 n          1 QD5      -0.316000
     14 C16         40.9790    19.5230    10.1490 c3         1 QD5       0.143300
     15 C19         40.0500    18.9220    11.1660 ca         1 QD5      -0.072300
     16 N27         40.3260    17.2590    14.3040 na         1 QD5      -0.171400
     17 C29         41.6570    17.4300    14.0720 cc         1 QD5      -0.100100
     18 C31         41.8400    18.0700    12.8790 cd         1 QD5      -0.204200
     19 C33         40.5380    18.3120    12.3360 ca         1 QD5      -0.081800
     20 C34         41.3220    17.5870     8.6860 c          1 QD5       0.713700
     21 O35         40.1220    17.6540     8.4370 o          1 QD5      -0.641500
     22 C36         45.5060    17.8130     9.7350 c          1 QD5       0.702300
     23 O37         45.8160    18.4790    10.7130 o          1 QD5      -0.612100
     24 N38         46.4090    17.1680     8.9750 ns         1 QD5      -0.541900
     25 C40         47.8060    17.2310     9.2520 cx         1 QD5       0.042700
     26 C42         48.6190    16.0080     8.9750 cx         1 QD5      -0.130900
     27 C45         48.3540    16.4290    10.3880 cx         1 QD5      -0.130900
     28 H1          44.2200    15.9040     8.0850 ha         1 QD5       0.163000
     29 H2          43.5110    19.3890    10.4710 h4         1 QD5       0.176000
     30 H3          38.2910    19.4510    10.0870 ha         1 QD5       0.136000
     31 H4          36.7200    18.5520    11.7460 ha         1 QD5       0.133000
     32 H5          37.5440    17.4570    13.8120 ha         1 QD5       0.133000
     33 H6          38.9410    14.5620     5.9390 h1         1 QD5       0.038033
     34 H7          40.4730    14.4390     5.0700 h1         1 QD5       0.038033
     35 H8          40.1630    13.4030     6.4680 h1         1 QD5       0.038033
     36 H9          39.9060    16.1390     7.2920 hn         1 QD5       0.352500
     37 H10         41.6120    20.2810    10.6100 h1         1 QD5       0.069700
     38 H11         40.4150    20.0100     9.3560 h1         1 QD5       0.069700
     39 H12         39.9350    16.8190    15.1200 hn         1 QD5       0.299700
     40 H13         42.3880    17.0780    14.7820 h4         1 QD5       0.165000
     41 H14         42.8010    18.3290    12.4660 ha         1 QD5       0.157000
     42 H15         46.1300    16.7990     8.0800 hn         1 QD5       0.323500
     43 H16         48.2740    18.1900     9.0520 h1         1 QD5       0.084700
     44 H17         48.1010    15.1320     8.6050 hc         1 QD5       0.078700
     45 H18         49.6110    16.1490     8.5670 hc         1 QD5       0.078700
     46 H19         47.6550    15.8390    10.9660 hc         1 QD5       0.078700
     47 H20         49.1630    16.8610    10.9630 hc         1 QD5       0.078700
@<TRIPOS>BOND
     1     1    11 2   
     2     1    12 1   
     3     1    28 1   
     4     2    12 2   
     5     2    13 1   
     6     2    29 1   
     7     3     4 ar  
     8     3    15 ar  
     9     3    30 1   
    10     4     5 ar  
    11     4    31 1   
    12     5     6 ar  
    13     5    32 1   
    14     6    16 1   
    15     6    19 ar  
    16     7     8 1   
    17     7    33 1   
    18     7    34 1   
    19     7    35 1   
    20     8     9 1   
    21     8    36 1   
    22     9    10 2   
    23     9    11 1   
    24    11    20 1   
    25    12    22 1   
    26    13    14 1   
    27    13    20 1   
    28    14    15 1   
    29    14    37 1   
    30    14    38 1   
    31    15    19 ar  
    32    16    17 1   
    33    16    39 1   
    34    17    18 2   
    35    17    40 1   
    36    18    19 1   
    37    18    41 1   
    38    20    21 2   
    39    22    23 2   
    40    22    24 1   
    41    24    25 1   
    42    24    42 1   
    43    25    26 1   
    44    25    27 1   
    45    25    43 1   
    46    26    27 1   
    47    26    44 1   
    48    26    45 1   
    49    27    46 1   
    50    27    47 1   
@<TRIPOS>SUBSTRUCTURE
     1 QD5         1 TEMP              0 ****  ****    0 ROOT
