@<TRIPOS>MOLECULE
QD6
   62    65     1     0     0
SMALL
abcg2


@<TRIPOS>ATOM
      1 C10         11.2570   -47.4560   -15.8460 ca         1 QD6      -0.082300
      2 C15          8.9850   -48.0900   -16.3020 ca         1 QD6      -0.132800
      3 C17          7.2710   -49.4670   -16.8340 cc         1 QD6      -0.074300
      4 C21          8.3580   -52.4160   -15.8560 cc         1 QD6      -0.225300
      5 C22          7.3780   -53.3550   -15.5910 cd         1 QD6      -0.170000
      6 C26          9.1010   -52.3490   -14.6590 cc         1 QD6       0.284900
      7 C28          9.3960   -45.7420   -15.6060 cp         1 QD6      -0.016000
      8 C02         12.9610   -46.7090   -14.0920 c          1 QD6       0.722000
      9 C04         12.3090   -46.4250   -15.4820 c3         1 QD6       0.059600
     10 C11         11.6450   -48.7860   -16.1430 ca         1 QD6       0.411300
     11 C12         13.0800   -49.2280   -16.0520 c3         1 QD6      -0.147400
     12 C14          9.5010   -49.3740   -16.5830 ca         1 QD6       0.374500
     13 C16          7.5640   -48.1760   -16.4690 cd         1 QD6      -0.223200
     14 C18          5.9500   -50.0870   -17.1220 c3         1 QD6      -0.025900
     15 C27          9.9020   -47.1030   -15.9140 cp         1 QD6       0.021000
     16 C29          8.6690   -45.0350   -16.5660 ca         1 QD6      -0.085000
     17 C30          8.1840   -43.7590   -16.3050 ca         1 QD6      -0.118500
     18 C31          8.4210   -43.1940   -15.0600 ca         1 QD6       0.117000
     19 C33          9.1260   -43.8770   -14.0800 ca         1 QD6      -0.118500
     20 C34          9.6110   -45.1480   -14.3590 ca         1 QD6      -0.085000
     21 N13         10.7740   -49.7360   -16.5060 nb         1 QD6      -0.722000
     22 N19          8.4490   -50.1970   -16.9190 na         1 QD6      -0.211400
     23 N23          7.5670   -53.7870   -14.3240 na         1 QD6       0.107800
     24 N25          8.6170   -53.1800   -13.7370 nd         1 QD6      -0.531800
     25 O03         14.1870   -46.5130   -13.9510 o          1 QD6      -0.709500
     26 O05         13.3090   -46.2640   -16.4800 os         1 QD6      -0.435000
     27 CL32         7.8160   -41.5840   -14.7190 cl         1 QD6      -0.251000
     28 H202         7.8430   -51.9460   -17.8720 h1         1 QD6       0.061200
     29 H201         9.5600   -51.8150   -17.5240 h1         1 QD6       0.061200
     30 H221         6.5760   -53.7350   -16.2030 h4         1 QD6       0.140000
     31 H243         6.4080   -54.3490   -12.6800 h1         1 QD6       0.049367
     32 H242         5.9690   -55.0990   -14.2290 h1         1 QD6       0.049367
     33 H241         7.4240   -55.6400   -13.3630 h1         1 QD6       0.049367
     34 H261         9.9560   -51.7280   -14.4390 h4         1 QD6       0.066100
     35 H041        11.8070   -45.4710   -15.3320 h1         1 QD6       0.032700
     36 H072        13.3100   -43.6070   -16.3640 hc         1 QD6       0.033811
     37 H071        12.6410   -43.2980   -17.9740 hc         1 QD6       0.033811
     38 H073        11.6150   -43.9860   -16.7240 hc         1 QD6       0.033811
     39 H082        11.0470   -46.0040   -18.1310 hc         1 QD6       0.033811
     40 H081        11.9900   -45.3460   -19.4680 hc         1 QD6       0.033811
     41 H083        12.3320   -46.9750   -18.8600 hc         1 QD6       0.033811
     42 H092        15.1690   -44.8670   -17.5890 hc         1 QD6       0.033811
     43 H093        14.7650   -46.2800   -18.5800 hc         1 QD6       0.033811
     44 H091        14.3770   -44.6530   -19.1610 hc         1 QD6       0.033811
     45 H122        13.1470   -50.2880   -16.2880 hc         1 QD6       0.060033
     46 H121        13.7120   -48.6620   -16.7350 hc         1 QD6       0.060033
     47 H123        13.4800   -49.0680   -15.0480 hc         1 QD6       0.060033
     48 H161         6.8400   -47.3870   -16.3460 ha         1 QD6       0.196000
     49 H183         5.7290   -50.9000   -16.4260 hc         1 QD6       0.038033
     50 H182         5.1660   -49.3370   -17.0350 hc         1 QD6       0.038033
     51 H181         5.9140   -50.5060   -18.1320 hc         1 QD6       0.038033
     52 H291         8.4910   -45.4780   -17.5370 ha         1 QD6       0.148000
     53 H301         7.6350   -43.2130   -17.0590 ha         1 QD6       0.120500
     54 H331         9.2970   -43.4230   -13.1130 ha         1 QD6       0.120500
     55 H341        10.1770   -45.6870   -13.6100 ha         1 QD6       0.148000
     56 C20          8.5650   -51.6370   -17.1180 c3         1 QD6       0.173900
     57 C06         13.0660   -45.3750   -17.5960 c3         1 QD6       0.176000
     58 C24          6.7970   -54.7800   -13.6010 c3         1 QD6       0.082900
     59 C07         12.6280   -43.9860   -17.1270 c3         1 QD6      -0.099100
     60 C08         12.0410   -45.9640   -18.5690 c3         1 QD6      -0.099100
     61 C09         14.4310   -45.2860   -18.2750 c3         1 QD6      -0.099100
     62 O01         12.1490   -47.0700   -13.2010 o          1 QD6      -0.709500
@<TRIPOS>BOND
     1     1     9 1   
     2     1    10 ar  
     3     1    15 ar  
     4     2    12 ar  
     5     2    13 1   
     6     2    15 ar  
     7     3    13 2   
     8     3    14 1   
     9     3    22 1   
    10     4     5 2   
    11     4     6 1   
    12     4    56 1   
    13     5    23 1   
    14     5    30 1   
    15     6    24 2   
    16     6    34 1   
    17     7    15 1   
    18     7    16 ar  
    19     7    20 ar  
    20     8     9 1   
    21     8    25 1   
    22     8    62 1   
    23     9    26 1   
    24     9    35 1   
    25    10    11 1   
    26    10    21 ar  
    27    11    45 1   
    28    11    46 1   
    29    11    47 1   
    30    12    21 ar  
    31    12    22 1   
    32    13    48 1   
    33    14    49 1   
    34    14    50 1   
    35    14    51 1   
    36    16    17 ar  
    37    16    52 1   
    38    17    18 ar  
    39    17    53 1   
    40    18    19 ar  
    41    18    27 1   
    42    19    20 ar  
    43    19    54 1   
    44    20    55 1   
    45    22    56 1   
    46    23    24 1   
    47    23    58 1   
    48    26    57 1   
    49    28    56 1   
    50    29    56 1   
    51    31    58 1   
    52    32    58 1   
    53    33    58 1   
    54    36    59 1   
    55    37    59 1   
    56    38    59 1   
    57    39    60 1   
    58    40    60 1   
    59    41    60 1   
    60    42    61 1   
    61    43    61 1   
    62    44    61 1   
    63    57    59 1   
    64    57    60 1   
    65    57    61 1   
@<TRIPOS>SUBSTRUCTURE
     1 QD6         1 TEMP              0 ****  ****    0 ROOT
