@<TRIPOS>MOLECULE
QD6
   62    65     1     0     0
SMALL
No Charge or Current Charge


@<TRIPOS>ATOM
      1 C10         11.3230   -47.3820   -15.7450 ca         1 QD6      -0.082300
      2 C15          9.0800   -48.1120   -16.2010 ca         1 QD6      -0.132800
      3 C17          7.2440   -49.4300   -16.7540 cc         1 QD6      -0.074300
      4 C21          8.3470   -52.4820   -15.9410 cc         1 QD6      -0.225300
      5 C22          7.3020   -53.3170   -15.6790 cd         1 QD6      -0.170000
      6 C26          9.2120   -52.5880   -14.8390 cc         1 QD6       0.284900
      7 C28          9.3740   -45.7010   -15.5560 cp         1 QD6      -0.016000
      8 C02         13.0110   -46.6000   -13.9720 c          1 QD6       0.722000
      9 C04         12.3640   -46.3040   -15.3770 c3         1 QD6       0.059600
     10 C11         11.7200   -48.7260   -16.0260 ca         1 QD6       0.411300
     11 C12         13.1670   -49.2030   -15.9680 c3         1 QD6      -0.147400
     12 C14          9.5450   -49.3800   -16.4660 ca         1 QD6       0.374500
     13 C16          7.6480   -48.1640   -16.3830 cd         1 QD6      -0.223200
     14 C18          5.8670   -49.9650   -17.0360 c3         1 QD6      -0.025900
     15 C27          9.9330   -47.0600   -15.8210 cp         1 QD6       0.021000
     16 C29          8.7330   -44.9760   -16.5890 ca         1 QD6      -0.085000
     17 C30          8.2050   -43.6940   -16.3520 ca         1 QD6      -0.118500
     18 C31          8.3020   -43.1240   -15.0730 ca         1 QD6       0.117000
     19 C33          8.9200   -43.8330   -14.0310 ca         1 QD6      -0.118500
     20 C34          9.4480   -45.1140   -14.2700 ca         1 QD6      -0.085000
     21 N13         10.8480   -49.7040   -16.3790 nb         1 QD6      -0.722000
     22 N19          8.4440   -50.1650   -16.8020 na         1 QD6      -0.211400
     23 N23          7.5960   -53.8810   -14.4330 na         1 QD6       0.107800
     24 N25          8.7960   -53.4230   -13.9080 nd         1 QD6      -0.531800
     25 O03         14.2300   -46.5660   -13.8460 o          1 QD6      -0.709500
     26 O05         13.3660   -46.1520   -16.4370 os         1 QD6      -0.435000
     27 Cl32         7.6430   -41.5210   -14.7750 cl         1 QD6      -0.251000
     28 H202         7.8880   -51.8480   -17.9270 h1         1 QD6       0.061200
     29 H201         9.6060   -51.7760   -17.5170 h1         1 QD6       0.061200
     30 H221         6.4080   -53.5500   -16.2460 h4         1 QD6       0.140000
     31 H243         6.4850   -54.4340   -12.7300 h1         1 QD6       0.049367
     32 H242         5.8710   -55.0860   -14.2780 h1         1 QD6       0.049367
     33 H241         7.3480   -55.7750   -13.5440 h1         1 QD6       0.049367
     34 H261        10.1490   -52.0660   -14.6920 h4         1 QD6       0.066100
     35 H041        11.8580   -45.3470   -15.2250 h1         1 QD6       0.032700
     36 H072        13.2800   -43.5190   -16.5600 hc         1 QD6       0.033811
     37 H071        12.6120   -43.3390   -18.1940 hc         1 QD6       0.033811
     38 H073        11.5890   -43.9600   -16.8980 hc         1 QD6       0.033811
     39 H082        11.0100   -46.0600   -18.0940 hc         1 QD6       0.033811
     40 H081        11.9890   -45.7640   -19.5240 hc         1 QD6       0.033811
     41 H083        12.2590   -47.2350   -18.5750 hc         1 QD6       0.033811
     42 H092        15.1840   -44.8660   -17.8100 hc         1 QD6       0.033811
     43 H093        14.7680   -46.3800   -18.6400 hc         1 QD6       0.033811
     44 H091        14.3160   -44.8210   -19.3560 hc         1 QD6       0.033811
     45 H122        13.2560   -50.2680   -16.2100 hc         1 QD6       0.060033
     46 H121        13.7940   -48.6620   -16.6840 hc         1 QD6       0.060033
     47 H123        13.5900   -49.0690   -14.9680 hc         1 QD6       0.060033
     48 H161         6.9690   -47.3270   -16.2360 ha         1 QD6       0.196000
     49 H183         5.6140   -50.7760   -16.3430 hc         1 QD6       0.038033
     50 H182         5.1100   -49.1790   -16.9250 hc         1 QD6       0.038033
     51 H181         5.8000   -50.3550   -18.0580 hc         1 QD6       0.038033
     52 H291         8.6520   -45.4130   -17.5830 ha         1 QD6       0.148000
     53 H301         7.7210   -43.1460   -17.1560 ha         1 QD6       0.120500
     54 H331         8.9870   -43.3920   -13.0390 ha         1 QD6       0.120500
     55 H341         9.9150   -45.6610   -13.4550 ha         1 QD6       0.148000
     56 C20          8.5960   -51.5930   -17.1280 c3         1 QD6       0.173900
     57 C06         13.0680   -45.4120   -17.6540 c3         1 QD6       0.176000
     58 C24          6.7740   -54.8550   -13.7010 c3         1 QD6       0.082900
     59 C07         12.6090   -43.9730   -17.2990 c3         1 QD6      -0.099100
     60 C08         12.0170   -46.1680   -18.5060 c3         1 QD6      -0.099100
     61 C09         14.4160   -45.3670   -18.4110 c3         1 QD6      -0.099100
     62 O01         12.2630   -46.8750   -13.0420 o          1 QD6      -0.709500
@<TRIPOS>BOND
     1     1     9 1   
     2     1    10 ar  
     3     1    15 ar  
     4     2    12 ar  
     5     2    13 1   
     6     2    15 ar  
     7     3    13 2   
     8     3    14 1   
     9     3    22 1   
    10     4     5 2   
    11     4     6 1   
    12     4    56 1   
    13     5    23 1   
    14     5    30 1   
    15     6    24 2   
    16     6    34 1   
    17     7    15 1   
    18     7    16 ar  
    19     7    20 ar  
    20     8     9 1   
    21     8    25 1   
    22     8    62 1   
    23     9    26 1   
    24     9    35 1   
    25    10    11 1   
    26    10    21 ar  
    27    11    45 1   
    28    11    46 1   
    29    11    47 1   
    30    12    21 ar  
    31    12    22 1   
    32    13    48 1   
    33    14    49 1   
    34    14    50 1   
    35    14    51 1   
    36    16    17 ar  
    37    16    52 1   
    38    17    18 ar  
    39    17    53 1   
    40    18    19 ar  
    41    18    27 1   
    42    19    20 ar  
    43    19    54 1   
    44    20    55 1   
    45    22    56 1   
    46    23    24 1   
    47    23    58 1   
    48    26    57 1   
    49    28    56 1   
    50    29    56 1   
    51    31    58 1   
    52    32    58 1   
    53    33    58 1   
    54    36    59 1   
    55    37    59 1   
    56    38    59 1   
    57    39    60 1   
    58    40    60 1   
    59    41    60 1   
    60    42    61 1   
    61    43    61 1   
    62    44    61 1   
    63    57    59 1   
    64    57    60 1   
    65    57    61 1   
@<TRIPOS>SUBSTRUCTURE
     1 QD6         1 TEMP              0 ****  ****    0 ROOT
