@<TRIPOS>MOLECULE
QD7
   19    18     1     0     0
SMALL
No Charge or Current Charge


@<TRIPOS>ATOM
      1 CAB        125.0720   128.2130   202.5770 c3         1 QD7       0.144800
      2 CAC        126.2810   129.1750   202.5290 c3         1 QD7      -0.036400
      3 CAD        126.8340   129.5220   203.9350 c3         1 QD7      -0.440400
      4 CAG        127.6640   132.2090   203.2600 c3         1 QD7      -0.465100
      5 NAA        124.5610   127.9030   201.2290 n8         1 QD7      -1.003200
      6 OAF        128.7510   130.8560   205.3620 o          1 QD7      -0.835000
      7 OAH        129.3800   130.0930   203.0700 o          1 QD7      -0.835000
      8 PAE        128.3010   130.6340   203.9530 p5         1 QD7       1.410000
      9 H1         124.2610   128.6690   203.1610 h1         1 QD7       0.018700
     10 H2         125.3660   127.2730   203.0630 h1         1 QD7       0.018700
     11 H3         127.0790   128.7180   201.9290 hc         1 QD7       0.041200
     12 H4         125.9830   130.0980   202.0170 hc         1 QD7       0.041200
     13 H5         126.0570   130.0090   204.5340 hc         1 QD7       0.043200
     14 H6         127.1300   128.6050   204.4560 hc         1 QD7       0.043200
     15 H7         126.7480   132.5000   203.7860 hc         1 QD7       0.035033
     16 H8         128.4170   132.9950   203.3850 hc         1 QD7       0.035033
     17 H9         127.4470   132.0870   202.1940 hc         1 QD7       0.035033
     18 H10        123.7230   127.3170   201.3180 hn         1 QD7       0.375500
     19 H11        124.2090   128.7680   200.8020 hn         1 QD7       0.375500
@<TRIPOS>BOND
     1     1     2 1   
     2     1     5 1   
     3     1     9 1   
     4     1    10 1   
     5     2     3 1   
     6     2    11 1   
     7     2    12 1   
     8     3     8 1   
     9     3    13 1   
    10     3    14 1   
    11     4     8 1   
    12     4    15 1   
    13     4    16 1   
    14     4    17 1   
    15     5    18 1   
    16     5    19 1   
    17     6     8 1   
    18     7     8 1   
@<TRIPOS>SUBSTRUCTURE
     1 QD7         1 TEMP              0 ****  ****    0 ROOT
