@<TRIPOS>MOLECULE
QD7
   19    18     1     0     0
SMALL
abcg2


@<TRIPOS>ATOM
      1 CAB        125.0890   128.2260   202.5840 c3         1 QD7       0.144800
      2 CAC        126.2710   129.1870   202.5380 c3         1 QD7      -0.036400
      3 CAD        126.8200   129.5140   203.9260 c3         1 QD7      -0.440400
      4 CAG        127.6650   132.1880   203.2370 c3         1 QD7      -0.465100
      5 NAA        124.5790   127.9510   201.2320 n8         1 QD7      -1.003200
      6 OAF        128.6290   130.8800   205.4180 o          1 QD7      -0.835000
      7 OAH        129.3610   130.0630   203.0670 o          1 QD7      -0.835000
      8 PAE        128.2780   130.6250   203.9660 p5         1 QD7       1.410000
      9 H1         124.3190   128.6410   203.2500 h1         1 QD7       0.018700
     10 H2         125.4090   127.2780   203.0240 h1         1 QD7       0.018700
     11 H3         127.0600   128.7540   201.9180 hc         1 QD7       0.041200
     12 H4         125.9520   130.1090   202.0390 hc         1 QD7       0.041200
     13 H5         126.0400   129.9650   204.5470 hc         1 QD7       0.043200
     14 H6         127.1340   128.5930   204.4320 hc         1 QD7       0.043200
     15 H7         126.8200   132.5760   203.8070 hc         1 QD7       0.035033
     16 H8         128.4740   132.9220   203.2640 hc         1 QD7       0.035033
     17 H9         127.3600   132.0470   202.1990 hc         1 QD7       0.035033
     18 H10        123.7880   127.3160   201.2860 hn         1 QD7       0.375500
     19 H11        124.2160   128.8100   200.8280 hn         1 QD7       0.375500
@<TRIPOS>BOND
     1     1     2 1   
     2     1     5 1   
     3     1     9 1   
     4     1    10 1   
     5     2     3 1   
     6     2    11 1   
     7     2    12 1   
     8     3     8 1   
     9     3    13 1   
    10     3    14 1   
    11     4     8 1   
    12     4    15 1   
    13     4    16 1   
    14     4    17 1   
    15     5    18 1   
    16     5    19 1   
    17     6     8 1   
    18     7     8 1   
@<TRIPOS>SUBSTRUCTURE
     1 QD7         1 TEMP              0 ****  ****    0 ROOT
