@<TRIPOS>MOLECULE
QD8
   26    25     1     0     0
SMALL
No Charge or Current Charge


@<TRIPOS>ATOM
      1 C6          22.4020   310.0970    44.4500 c3         1 QD8      -0.081100
      2 C1          19.1910   313.8660    45.2860 c          1 QD8       0.468100
      3 C2          18.4760   312.6520    44.6280 c3         1 QD8      -0.147700
      4 C3          18.7470   311.3260    45.4020 c3         1 QD8      -0.055400
      5 C7          16.9520   312.9560    44.4510 c3         1 QD8      -0.188400
      6 O1          20.2020   315.9750    44.5040 o          1 QD8      -0.731500
      7 C5          20.9400   310.5390    44.2430 c3         1 QD8      -0.081400
      8 O           20.8710   314.1900    43.5010 o          1 QD8      -0.731500
      9 C4          20.2390   310.9380    45.5630 c3         1 QD8      -0.063400
     10 O2          15.7080   310.9840    43.9630 o          1 QD8      -0.763000
     11 O3          16.3160   312.1930    42.2920 o          1 QD8      -0.763000
     12 O4          18.9860   314.1510    46.4740 o          1 QD8      -0.624100
     13 H1          22.8570   309.8240    43.4900 hc         1 QD8       0.010367
     14 H2          22.9930   310.9070    44.8920 hc         1 QD8       0.010367
     15 H3          22.4540   309.2260    45.1140 hc         1 QD8       0.010367
     16 H4          18.8830   312.5490    43.6160 hc         1 QD8       0.085700
     17 H5          18.3030   311.4040    46.4020 hc         1 QD8       0.037700
     18 H6          18.2310   310.4970    44.9030 hc         1 QD8       0.037700
     19 H7          16.9140   313.9600    44.0100 hc         1 QD8       0.033700
     20 H8          16.5000   312.9040    45.4490 hc         1 QD8       0.033700
     21 H9          20.9260   311.3810    43.5430 hc         1 QD8       0.055200
     22 H10         20.3850   309.7200    43.7690 hc         1 QD8       0.055200
     23 H12         20.2960   310.0890    46.2550 hc         1 QD8       0.017200
     24 H13         20.7890   311.7590    46.0370 hc         1 QD8       0.017200
     25 C8          16.2620   311.9650    43.4910 c          1 QD8       0.706000
     26 C           20.1750   314.7560    44.3400 c          1 QD8       0.653000
@<TRIPOS>BOND
     1     1     7 1   
     2     1    13 1   
     3     1    14 1   
     4     1    15 1   
     5     2     3 1   
     6     2    12 2   
     7     2    26 1   
     8     3     4 1   
     9     3     5 1   
    10     3    16 1   
    11     4     9 1   
    12     4    17 1   
    13     4    18 1   
    14     5    19 1   
    15     5    20 1   
    16     5    25 1   
    17     6    26 1   
    18     7     9 1   
    19     7    21 1   
    20     7    22 1   
    21     8    26 1   
    22     9    23 1   
    23     9    24 1   
    24    10    25 1   
    25    11    25 1   
@<TRIPOS>SUBSTRUCTURE
     1 QD8         1 TEMP              0 ****  ****    0 ROOT
