@<TRIPOS>MOLECULE
QD8
   26    25     1     0     0
SMALL
abcg2


@<TRIPOS>ATOM
      1 C6          22.3320   309.9780    44.3640 c3         1 QD8      -0.081100
      2 C1          19.2350   313.8560    45.3250 c          1 QD8       0.468100
      3 C2          18.6110   312.6540    44.6420 c3         1 QD8      -0.147700
      4 C3          18.8180   311.3600    45.4310 c3         1 QD8      -0.055400
      5 C7          17.1150   312.9630    44.4370 c3         1 QD8      -0.188400
      6 O1          19.1480   315.9540    44.2000 o          1 QD8      -0.731500
      7 C5          20.9080   310.5040    44.2040 c3         1 QD8      -0.081400
      8 O           20.9840   314.6580    43.9940 o          1 QD8      -0.731500
      9 C4          20.2750   310.9030    45.5360 c3         1 QD8      -0.063400
     10 O2          15.2750   311.5360    43.8960 o          1 QD8      -0.763000
     11 O3          16.9890   311.6270    42.4530 o          1 QD8      -0.763000
     12 O4          19.2630   313.9860    46.5410 o          1 QD8      -0.624100
     13 H1          22.7670   309.7000    43.4010 hc         1 QD8       0.010367
     14 H2          22.9790   310.7350    44.8160 hc         1 QD8       0.010367
     15 H3          22.3550   309.0950    45.0090 hc         1 QD8       0.010367
     16 H4          19.0550   312.5660    43.6500 hc         1 QD8       0.085700
     17 H5          18.4060   311.4960    46.4340 hc         1 QD8       0.037700
     18 H6          18.2290   310.5710    44.9540 hc         1 QD8       0.037700
     19 H7          17.0050   313.9470    43.9710 hc         1 QD8       0.033700
     20 H8          16.6110   312.9990    45.4040 hc         1 QD8       0.033700
     21 H9          20.9170   311.3620    43.5260 hc         1 QD8       0.055200
     22 H10         20.2840   309.7400    43.7260 hc         1 QD8       0.055200
     23 H12         20.3220   310.0460    46.2170 hc         1 QD8       0.017200
     24 H13         20.8770   311.6920    45.9980 hc         1 QD8       0.017200
     25 C8          16.4030   311.9460    43.5190 c          1 QD8       0.706000
     26 C           19.8370   314.9320    44.4190 c          1 QD8       0.653000
@<TRIPOS>BOND
     1     1     7 1   
     2     1    13 1   
     3     1    14 1   
     4     1    15 1   
     5     2     3 1   
     6     2    12 2   
     7     2    26 1   
     8     3     4 1   
     9     3     5 1   
    10     3    16 1   
    11     4     9 1   
    12     4    17 1   
    13     4    18 1   
    14     5    19 1   
    15     5    20 1   
    16     5    25 1   
    17     6    26 1   
    18     7     9 1   
    19     7    21 1   
    20     7    22 1   
    21     8    26 1   
    22     9    23 1   
    23     9    24 1   
    24    10    25 1   
    25    11    25 1   
@<TRIPOS>SUBSTRUCTURE
     1 QD8         1 TEMP              0 ****  ****    0 ROOT
