@<TRIPOS>MOLECULE
QD9
   54    57     1     0     0
SMALL
abcg2


@<TRIPOS>ATOM
      1 N1         -23.1020     3.7190    28.2570 nb         1 QD9      -0.647000
      2 N3         -16.9730     3.9540    25.3250 nb         1 QD9      -0.660000
      3 C4         -23.4040     6.0740    28.1230 ca         1 QD9      -0.108000
      4 C5         -22.6730     4.9530    28.4990 ca         1 QD9       0.386900
      5 C6         -24.2480     3.5450    27.6070 ca         1 QD9       0.274900
      6 C7         -21.4190     5.6310    30.5310 c3         1 QD9       0.156300
      7 C8         -21.5100     4.5910    31.6280 ca         1 QD9      -0.088300
      8 C10        -21.4560     4.0800    33.9910 ca         1 QD9      -0.102000
      9 C13        -21.7420     3.2480    31.3510 ca         1 QD9      -0.083000
     10 C15        -20.2610     4.2690    27.1600 c3         1 QD9      -0.099100
     11 C17        -18.1190     3.6980    26.0090 ca         1 QD9       0.338900
     12 C20        -17.1950     7.6290    25.0740 ca         1 QD9      -0.079000
     13 C21        -18.0220     8.6580    25.4450 ca         1 QD9      -0.115000
     14 C22        -19.2130     8.3860    26.1540 ca         1 QD9      -0.093000
     15 C24        -18.7270     6.0150    26.1170 ca         1 QD9       0.004000
     16 O          -19.1880     4.7470    29.2570 o          1 QD9      -0.577100
     17 C14        -20.2360     4.7180    28.6170 c          1 QD9       0.611100
     18 C16        -19.0120     4.6550    26.4210 ca         1 QD9      -0.101300
     19 C23        -19.5610     7.0990    26.4820 ca         1 QD9      -0.106000
     20 C19        -17.5290     6.2940    25.4010 ca         1 QD9      -0.098000
     21 C18        -16.6990     5.2060    25.0390 ca         1 QD9       0.361900
     22 N2         -21.4210     5.0980    29.1730 n          1 QD9      -0.416300
     23 C3         -24.6050     5.9080    27.4600 ca         1 QD9      -0.157000
     24 C2         -25.0640     4.6090    27.1570 ca         1 QD9       0.293000
     25 N          -26.2220     4.3870    26.4680 nh         1 QD9      -0.825400
     26 C1         -27.0950     5.5030    26.1470 c3         1 QD9       0.215600
     27 C          -26.7210     3.0330    26.3040 c3         1 QD9       0.215600
     28 C12        -21.8280     2.3430    32.4010 ca         1 QD9       0.127000
     29 CL         -22.1210     0.6510    32.0360 cl         1 QD9      -0.221000
     30 C11        -21.6890     2.7340    33.7240 ca         1 QD9      -0.104000
     31 C9         -21.3670     5.0000    32.9550 ca         1 QD9      -0.109000
     32 H1         -23.0300     7.0650    28.3400 ha         1 QD9       0.127000
     33 H2         -24.5420     2.5180    27.4380 h4         1 QD9       0.025100
     34 H3         -20.5100     6.2150    30.6690 h1         1 QD9       0.065700
     35 H4         -22.2640     6.3160    30.6140 h1         1 QD9       0.065700
     36 H5         -21.3420     4.4070    35.0170 ha         1 QD9       0.116000
     37 H6         -21.8640     2.9100    30.3320 ha         1 QD9       0.150000
     38 H7         -21.1390     4.6670    26.6530 hc         1 QD9       0.075700
     39 H8         -20.3680     3.1820    27.1600 hc         1 QD9       0.075700
     40 H10        -16.2790     7.8210    24.5280 ha         1 QD9       0.116000
     41 H11        -17.7690     9.6800    25.1970 ha         1 QD9       0.115000
     42 H12        -19.8590     9.2060    26.4400 ha         1 QD9       0.111000
     43 H13        -20.4810     6.9180    27.0210 ha         1 QD9       0.115000
     44 H14        -15.7810     5.4050    24.4920 h4         1 QD9       0.018100
     45 H15        -25.1730     6.7790    27.1690 ha         1 QD9       0.123000
     46 H16        -26.5730     6.2510    25.5450 h1         1 QD9       0.041200
     47 H17        -27.9370     5.1340    25.5680 h1         1 QD9       0.041200
     48 H18        -27.4800     5.9980    27.0460 h1         1 QD9       0.041200
     49 H19        -25.9880     2.4030    25.7940 h1         1 QD9       0.041200
     50 H20        -26.9640     2.5630    27.2650 h1         1 QD9       0.041200
     51 H21        -27.6210     3.0610    25.6970 h1         1 QD9       0.041200
     52 H22        -21.7580     2.0090    34.5230 ha         1 QD9       0.128000
     53 H23        -21.1830     6.0450    33.1750 ha         1 QD9       0.112000
     54 H9         -18.3130     2.6530    26.2270 h4         1 QD9       0.020100
@<TRIPOS>BOND
     1     1     4 ar  
     2     1     5 ar  
     3     2    11 ar  
     4     2    21 ar  
     5     3     4 ar  
     6     3    23 ar  
     7     3    32 1   
     8     4    22 1   
     9     5    24 ar  
    10     5    33 1   
    11     6     7 1   
    12     6    22 1   
    13     6    34 1   
    14     6    35 1   
    15     7     9 ar  
    16     7    31 ar  
    17     8    30 ar  
    18     8    31 ar  
    19     8    36 1   
    20     9    28 ar  
    21     9    37 1   
    22    10    17 1   
    23    10    18 1   
    24    10    38 1   
    25    10    39 1   
    26    11    18 ar  
    27    11    54 1   
    28    12    13 ar  
    29    12    20 ar  
    30    12    40 1   
    31    13    14 ar  
    32    13    41 1   
    33    14    19 ar  
    34    14    42 1   
    35    15    18 ar  
    36    15    19 ar  
    37    15    20 ar  
    38    16    17 2   
    39    17    22 1   
    40    19    43 1   
    41    20    21 ar  
    42    21    44 1   
    43    23    24 ar  
    44    23    45 1   
    45    24    25 1   
    46    25    26 1   
    47    25    27 1   
    48    26    46 1   
    49    26    47 1   
    50    26    48 1   
    51    27    49 1   
    52    27    50 1   
    53    27    51 1   
    54    28    29 1   
    55    28    30 ar  
    56    30    52 1   
    57    31    53 1   
@<TRIPOS>SUBSTRUCTURE
     1 QD9         1 TEMP              0 ****  ****    0 ROOT
