@<TRIPOS>MOLECULE
QD9
   54    57     1     0     0
SMALL
No Charge or Current Charge


@<TRIPOS>ATOM
      1 N1         -23.9490     4.7320    29.3040 nb         1 QD9      -0.647000
      2 N3         -20.2430     3.0420    26.5940 nb         1 QD9      -0.660000
      3 C4         -24.3470     6.5520    27.7760 ca         1 QD9      -0.108000
      4 C5         -23.5690     5.9100    28.7660 ca         1 QD9       0.386900
      5 C6         -25.1210     4.1820    28.8920 ca         1 QD9       0.274900
      6 C7         -21.7040     6.0210    30.4790 c3         1 QD9       0.156300
      7 C8         -20.4950     5.0950    30.3580 ca         1 QD9      -0.088300
      8 C10        -19.5600     2.8600    30.0460 ca         1 QD9      -0.102000
      9 C13        -19.1870     5.6170    30.4310 ca         1 QD9      -0.083000
     10 C15        -21.2820     6.6980    26.8440 c3         1 QD9      -0.099100
     11 C17        -20.9460     4.1920    26.6720 ca         1 QD9       0.338900
     12 C20        -16.8000     4.3730    26.7630 ca         1 QD9      -0.079000
     13 C21        -16.1170     5.5960    26.8630 ca         1 QD9      -0.115000
     14 C22        -16.8400     6.7980    26.9320 ca         1 QD9      -0.093000
     15 C24        -18.9430     5.5580    26.7980 ca         1 QD9       0.004000
     16 O          -20.6860     7.9990    28.7770 o          1 QD9      -0.577100
     17 C14        -21.4330     7.1460    28.3140 c          1 QD9       0.611100
     18 C16        -20.3580     5.4740    26.7640 ca         1 QD9      -0.101300
     19 C23        -18.2450     6.7820    26.9000 ca         1 QD9      -0.106000
     20 C19        -18.2070     4.3530    26.7300 ca         1 QD9      -0.098000
     21 C18        -18.8960     3.1300    26.6280 ca         1 QD9       0.361900
     22 N2         -22.2820     6.4130    29.1650 n          1 QD9      -0.416300
     23 C3         -25.5620     5.9810    27.3510 ca         1 QD9      -0.157000
     24 C2         -25.9820     4.7590    27.9140 ca         1 QD9       0.293000
     25 N          -27.2090     4.1460    27.5040 nh         1 QD9      -0.825400
     26 C1         -28.2850     4.9200    26.8360 c3         1 QD9       0.215600
     27 C          -27.4810     2.7130    27.7770 c3         1 QD9       0.215600
     28 C12        -18.0760     4.7660    30.3110 ca         1 QD9       0.127000
     29 Cl         -16.4500     5.4280    30.4150 cl         1 QD9      -0.221000
     30 C11        -18.2600     3.3880    30.1190 ca         1 QD9      -0.104000
     31 C9         -20.6730     3.7110    30.1650 ca         1 QD9      -0.109000
     32 H1         -24.0280     7.5020    27.3570 ha         1 QD9       0.127000
     33 H2         -25.3810     3.2390    29.3710 h4         1 QD9       0.025100
     34 H3         -21.4040     6.9330    31.0130 h1         1 QD9       0.065700
     35 H4         -22.4610     5.5440    31.1130 h1         1 QD9       0.065700
     36 H5         -19.7070     1.7930    29.8940 ha         1 QD9       0.116000
     37 H6         -19.0280     6.6830    30.5770 ha         1 QD9       0.150000
     38 H7         -20.8850     7.5240    26.2450 hc         1 QD9       0.075700
     39 H8         -22.2410     6.3940    26.4210 hc         1 QD9       0.075700
     40 H10        -16.2350     3.4450    26.7130 ha         1 QD9       0.116000
     41 H11        -15.0300     5.6120    26.8910 ha         1 QD9       0.115000
     42 H12        -16.3100     7.7440    27.0130 ha         1 QD9       0.111000
     43 H13        -18.7700     7.7300    26.9550 ha         1 QD9       0.115000
     44 H14        -18.3530     2.1880    26.5720 h4         1 QD9       0.018100
     45 H15        -26.1520     6.4850    26.5910 ha         1 QD9       0.123000
     46 H16        -28.0510     5.0670    25.7730 h1         1 QD9       0.041200
     47 H17        -29.2500     4.4000    26.9080 h1         1 QD9       0.041200
     48 H18        -28.4060     5.9030    27.3110 h1         1 QD9       0.041200
     49 H19        -26.5860     2.1060    27.5850 h1         1 QD9       0.041200
     50 H20        -27.7870     2.5710    28.8220 h1         1 QD9       0.041200
     51 H21        -28.2810     2.3330    27.1280 h1         1 QD9       0.041200
     52 H22        -17.3980     2.7330    30.0260 ha         1 QD9       0.128000
     53 H23        -21.6750     3.2940    30.1040 ha         1 QD9       0.112000
     54 H9         -22.0300     4.0820    26.6540 h4         1 QD9       0.020100
@<TRIPOS>BOND
     1     1     4 ar  
     2     1     5 ar  
     3     2    11 ar  
     4     2    21 ar  
     5     3     4 ar  
     6     3    23 ar  
     7     3    32 1   
     8     4    22 1   
     9     5    24 ar  
    10     5    33 1   
    11     6     7 1   
    12     6    22 1   
    13     6    34 1   
    14     6    35 1   
    15     7     9 ar  
    16     7    31 ar  
    17     8    30 ar  
    18     8    31 ar  
    19     8    36 1   
    20     9    28 ar  
    21     9    37 1   
    22    10    17 1   
    23    10    18 1   
    24    10    38 1   
    25    10    39 1   
    26    11    18 ar  
    27    11    54 1   
    28    12    13 ar  
    29    12    20 ar  
    30    12    40 1   
    31    13    14 ar  
    32    13    41 1   
    33    14    19 ar  
    34    14    42 1   
    35    15    18 ar  
    36    15    19 ar  
    37    15    20 ar  
    38    16    17 2   
    39    17    22 1   
    40    19    43 1   
    41    20    21 ar  
    42    21    44 1   
    43    23    24 ar  
    44    23    45 1   
    45    24    25 1   
    46    25    26 1   
    47    25    27 1   
    48    26    46 1   
    49    26    47 1   
    50    26    48 1   
    51    27    49 1   
    52    27    50 1   
    53    27    51 1   
    54    28    29 1   
    55    28    30 ar  
    56    30    52 1   
    57    31    53 1   
@<TRIPOS>SUBSTRUCTURE
     1 QD9         1 TEMP              0 ****  ****    0 ROOT
