@<TRIPOS>MOLECULE
QDA
   46    48     1     0     0
SMALL
abcg2


@<TRIPOS>ATOM
      1 C04        142.6770   139.1220   100.4040 ca         1 QDA      -0.472200
      2 C05        142.4070   137.7100   100.3840 ca         1 QDA       0.478400
      3 C07        141.0920   135.7090   100.9430 c5         1 QDA       0.240500
      4 C08        140.4870   135.2850    99.6050 c5         1 QDA      -0.097150
      5 C09        139.0450   135.8000    99.6710 c5         1 QDA      -0.083400
      6 C10        138.6680   135.7820   101.1710 c5         1 QDA      -0.083400
      7 C11        139.9590   135.4060   101.9210 c5         1 QDA      -0.097150
      8 C13        144.2760   137.4100    99.1380 ca         1 QDA       0.353300
      9 C15        144.6170   134.7300    98.5200 c3         1 QDA       0.019900
     10 C17        143.8590   139.5650    99.7080 ca         1 QDA       0.478400
     11 C19        145.4570   141.2800    98.9700 c5         1 QDA       0.240500
     12 C20        145.4390   142.8040    98.8870 c5         1 QDA      -0.097150
     13 C21        145.8970   143.2880   100.2760 c5         1 QDA      -0.083400
     14 C22        146.6300   142.0870   100.9180 c5         1 QDA      -0.083400
     15 C23        146.6990   141.0170    99.8230 c5         1 QDA      -0.097150
     16 N02        141.8350   140.0180   101.0660 no         1 QDA       0.735200
     17 N06        141.3700   137.1400   100.9810 nu         1 QDA      -0.884600
     18 N12        143.2370   136.8820    99.7390 nb         1 QDA      -0.331000
     19 N16        144.6350   138.6770    99.0820 nb         1 QDA      -0.331000
     20 N18        144.2410   140.8330    99.6360 nu         1 QDA      -0.884600
     21 O01        140.8410   139.6040   101.6530 o          1 QDA      -0.460500
     22 O03        142.0890   141.2180   101.0600 o          1 QDA      -0.460500
     23 S14        145.3720   136.3500    98.2830 ss         1 QDA      -0.290300
     24 H1         142.0070   135.1650   101.1790 h1         1 QDA       0.082700
     25 H2         141.0450   135.6580    98.7470 hc         1 QDA       0.057450
     26 H3         140.5060   134.1930    99.5550 hc         1 QDA       0.057450
     27 H4         138.3690   135.1970    99.0650 hc         1 QDA       0.047075
     28 H5         138.9930   136.8180    99.2790 hc         1 QDA       0.047075
     29 H6         137.8730   135.0660   101.3820 hc         1 QDA       0.047075
     30 H7         138.2950   136.7560   101.4900 hc         1 QDA       0.047075
     31 H8         139.9780   134.3360   102.1340 hc         1 QDA       0.057450
     32 H9         140.0720   135.9200   102.8780 hc         1 QDA       0.057450
     33 H10        145.2620   134.0200    98.0050 h1         1 QDA       0.070700
     34 H11        144.5670   134.4710    99.5750 h1         1 QDA       0.070700
     35 H12        143.6220   134.6930    98.0860 h1         1 QDA       0.070700
     36 H13        145.5190   140.8090    97.9890 h1         1 QDA       0.082700
     37 H14        146.1570   143.1070    98.1230 hc         1 QDA       0.057450
     38 H15        144.4680   143.2020    98.5870 hc         1 QDA       0.057450
     39 H16        145.0470   143.5990   100.8860 hc         1 QDA       0.047075
     40 H17        146.5450   144.1600   100.1880 hc         1 QDA       0.047075
     41 H18        146.0680   141.7130   101.7750 hc         1 QDA       0.047075
     42 H19        147.6200   142.3540   101.2860 hc         1 QDA       0.047075
     43 H20        147.5790   141.1660    99.1930 hc         1 QDA       0.057450
     44 H21        146.7440   139.9990   100.2080 hc         1 QDA       0.057450
     45 H22        140.7510   137.7500   101.4920 hn         1 QDA       0.539500
     46 H23        143.6540   141.5110   100.0960 hn         1 QDA       0.539500
@<TRIPOS>BOND
     1     1     2 ar  
     2     1    10 ar  
     3     1    16 1   
     4     2    17 1   
     5     2    18 ar  
     6     3     4 1   
     7     3     7 1   
     8     3    17 1   
     9     3    24 1   
    10     4     5 1   
    11     4    25 1   
    12     4    26 1   
    13     5     6 1   
    14     5    27 1   
    15     5    28 1   
    16     6     7 1   
    17     6    29 1   
    18     6    30 1   
    19     7    31 1   
    20     7    32 1   
    21     8    18 ar  
    22     8    19 ar  
    23     8    23 1   
    24     9    23 1   
    25     9    33 1   
    26     9    34 1   
    27     9    35 1   
    28    10    19 ar  
    29    10    20 1   
    30    11    12 1   
    31    11    15 1   
    32    11    20 1   
    33    11    36 1   
    34    12    13 1   
    35    12    37 1   
    36    12    38 1   
    37    13    14 1   
    38    13    39 1   
    39    13    40 1   
    40    14    15 1   
    41    14    41 1   
    42    14    42 1   
    43    15    43 1   
    44    15    44 1   
    45    16    21 1   
    46    16    22 1   
    47    17    45 1   
    48    20    46 1   
@<TRIPOS>SUBSTRUCTURE
     1 QDA         1 TEMP              0 ****  ****    0 ROOT
