@<TRIPOS>MOLECULE
QDA
   46    48     1     0     0
SMALL
No Charge or Current Charge


@<TRIPOS>ATOM
      1 C04        142.5380   139.2800   100.5500 ca         1 QDA      -0.472200
      2 C05        142.1040   138.0200   100.1150 ca         1 QDA       0.478400
      3 C07        140.5750   136.1930   100.5470 c5         1 QDA       0.240500
      4 C08        140.1560   135.5110    99.2210 c5         1 QDA      -0.097150
      5 C09        139.4200   134.2400    99.7430 c5         1 QDA      -0.083400
      6 C10        138.8700   134.6410   101.1540 c5         1 QDA      -0.083400
      7 C11        139.2240   136.1490   101.2970 c5         1 QDA      -0.097150
      8 C13        144.2270   137.5180    99.4200 ca         1 QDA       0.353300
      9 C15        144.3200   134.9000    98.2320 c3         1 QDA       0.019900
     10 C17        143.8960   139.5760   100.3650 ca         1 QDA       0.478400
     11 C19        145.4830   141.3380    99.8790 c5         1 QDA       0.240500
     12 C20        145.3870   142.8690   100.0720 c5         1 QDA      -0.097150
     13 C21        146.7680   143.3090    99.5090 c5         1 QDA      -0.083400
     14 C22        147.7470   142.1600    99.9290 c5         1 QDA      -0.083400
     15 C23        146.8380   141.0740   100.5800 c5         1 QDA      -0.097150
     16 N02        141.6110   140.2470   101.1700 no         1 QDA       0.735200
     17 N06        140.7700   137.6310   100.2230 nu         1 QDA      -0.884600
     18 N12        142.9450   137.1500    99.5380 nb         1 QDA      -0.331000
     19 N16        144.7400   138.6880    99.8160 nb         1 QDA      -0.331000
     20 N18        144.4410   140.7870   100.7860 nu         1 QDA      -0.884600
     21 O01        140.7140   139.8140   101.9010 o          1 QDA      -0.460500
     22 O03        141.7730   141.4490   100.9350 o          1 QDA      -0.460500
     23 S14        145.3690   136.3610    98.6720 ss         1 QDA      -0.290300
     24 H1         141.3890   135.6910   101.0960 h1         1 QDA       0.082700
     25 H2         139.4780   136.1370    98.6280 hc         1 QDA       0.057450
     26 H3         141.0120   135.2650    98.5830 hc         1 QDA       0.057450
     27 H4         140.1080   133.3900    99.8240 hc         1 QDA       0.047075
     28 H5         138.6180   133.9340    99.0610 hc         1 QDA       0.047075
     29 H6         139.3550   134.0490   101.9400 hc         1 QDA       0.047075
     30 H7         137.7920   134.4660   101.2450 hc         1 QDA       0.047075
     31 H8         139.3120   136.4610   102.3440 hc         1 QDA       0.057450
     32 H9         138.4550   136.7750   100.8270 hc         1 QDA       0.057450
     33 H10        144.9410   134.1280    97.7630 h1         1 QDA       0.070700
     34 H11        143.8570   134.4870    99.1370 h1         1 QDA       0.070700
     35 H12        143.5340   135.2040    97.5300 h1         1 QDA       0.070700
     36 H13        145.4350   141.0330    98.8210 h1         1 QDA       0.082700
     37 H14        144.5500   143.3120    99.5210 hc         1 QDA       0.057450
     38 H15        145.2840   143.1610   101.1250 hc         1 QDA       0.057450
     39 H16        147.0780   144.2840    99.9040 hc         1 QDA       0.047075
     40 H17        146.7320   143.4070    98.4170 hc         1 QDA       0.047075
     41 H18        148.5150   142.5100   100.6290 hc         1 QDA       0.047075
     42 H19        148.2740   141.7630    99.0530 hc         1 QDA       0.047075
     43 H20        147.2120   140.0590   100.4060 hc         1 QDA       0.057450
     44 H21        146.7800   141.2170   101.6660 hc         1 QDA       0.057450
     45 H22        140.2240   138.3150   100.7480 hn         1 QDA       0.539500
     46 H23        143.7160   141.4250   101.1170 hn         1 QDA       0.539500
@<TRIPOS>BOND
     1     1     2 ar  
     2     1    10 ar  
     3     1    16 1   
     4     2    17 1   
     5     2    18 ar  
     6     3     4 1   
     7     3     7 1   
     8     3    17 1   
     9     3    24 1   
    10     4     5 1   
    11     4    25 1   
    12     4    26 1   
    13     5     6 1   
    14     5    27 1   
    15     5    28 1   
    16     6     7 1   
    17     6    29 1   
    18     6    30 1   
    19     7    31 1   
    20     7    32 1   
    21     8    18 ar  
    22     8    19 ar  
    23     8    23 1   
    24     9    23 1   
    25     9    33 1   
    26     9    34 1   
    27     9    35 1   
    28    10    19 ar  
    29    10    20 1   
    30    11    12 1   
    31    11    15 1   
    32    11    20 1   
    33    11    36 1   
    34    12    13 1   
    35    12    37 1   
    36    12    38 1   
    37    13    14 1   
    38    13    39 1   
    39    13    40 1   
    40    14    15 1   
    41    14    41 1   
    42    14    42 1   
    43    15    43 1   
    44    15    44 1   
    45    16    21 1   
    46    16    22 1   
    47    17    45 1   
    48    20    46 1   
@<TRIPOS>SUBSTRUCTURE
     1 QDA         1 TEMP              0 ****  ****    0 ROOT
