@<TRIPOS>MOLECULE
QDB
   26    27     1     0     0
SMALL
No Charge or Current Charge


@<TRIPOS>ATOM
      1 C01          2.6880    -0.3510    23.9050 ca         1 QDB      -0.102000
      2 C02          3.0080    -1.4650    23.1140 ca         1 QDB      -0.131000
      3 C03          3.1030    -1.3360    21.7170 ca         1 QDB      -0.066500
      4 C04          2.8890    -0.0850    21.0970 ca         1 QDB      -0.150600
      5 C05          2.5520     1.0280    21.9020 ca         1 QDB      -0.066500
      6 C06          2.4570     0.8940    23.2980 ca         1 QDB      -0.131000
      7 C07          2.9800     0.0360    19.5910 c          1 QDB       0.596300
      8 C09          3.4280     1.3450    18.9770 ca         1 QDB      -0.207600
      9 C10          4.3750     2.1710    19.6210 ca         1 QDB      -0.094500
     10 C11          4.7920     3.3760    19.0310 ca         1 QDB      -0.105500
     11 C12          4.2830     3.7870    17.7770 ca         1 QDB      -0.098600
     12 C13          3.3480     2.9470    17.1290 ca         1 QDB      -0.105500
     13 C14          2.9310     1.7410    17.7180 ca         1 QDB      -0.094500
     14 C15          4.7360     5.0940    17.1390 c          1 QDB       0.703600
     15 O08          2.6940    -0.9180    18.8740 o          1 QDB      -0.555100
     16 O16          4.2710     5.4070    16.0510 o          1 QDB      -0.715500
     17 O17          5.5480     5.7870    17.7350 o          1 QDB      -0.715500
     18 H011         2.6140    -0.4520    24.9860 ha         1 QDB       0.102000
     19 H021         3.1810    -2.4320    23.5820 ha         1 QDB       0.107500
     20 H031         3.3510    -2.2090    21.1160 ha         1 QDB       0.129500
     21 H051         2.3490     1.9960    21.4490 ha         1 QDB       0.129500
     22 H061         2.1990     1.7560    23.9090 ha         1 QDB       0.107500
     23 H101         4.8030     1.8770    20.5770 ha         1 QDB       0.099500
     24 H111         5.5210     3.9920    19.5540 ha         1 QDB       0.133500
     25 H131         2.9400     3.2280    16.1600 ha         1 QDB       0.133500
     26 H141         2.2110     1.1160    17.1940 ha         1 QDB       0.099500
@<TRIPOS>BOND
     1     1     2 ar  
     2     1     6 ar  
     3     1    18 1   
     4     2     3 ar  
     5     2    19 1   
     6     3     4 ar  
     7     3    20 1   
     8     4     5 ar  
     9     4     7 1   
    10     5     6 ar  
    11     5    21 1   
    12     6    22 1   
    13     7     8 1   
    14     7    15 2   
    15     8     9 ar  
    16     8    13 ar  
    17     9    10 ar  
    18     9    23 1   
    19    10    11 ar  
    20    10    24 1   
    21    11    12 ar  
    22    11    14 1   
    23    12    13 ar  
    24    12    25 1   
    25    13    26 1   
    26    14    16 1   
    27    14    17 1   
@<TRIPOS>SUBSTRUCTURE
     1 QDB         1 TEMP              0 ****  ****    0 ROOT
