@<TRIPOS>MOLECULE
QDB
   26    27     1     0     0
SMALL
abcg2


@<TRIPOS>ATOM
      1 C01          2.6730    -0.3830    23.8690 ca         1 QDB      -0.102000
      2 C02          3.0160    -1.4630    23.0580 ca         1 QDB      -0.131000
      3 C03          3.1190    -1.2930    21.6850 ca         1 QDB      -0.066500
      4 C04          2.9050    -0.0370    21.1100 ca         1 QDB      -0.150600
      5 C05          2.5640     1.0420    21.9300 ca         1 QDB      -0.066500
      6 C06          2.4380     0.8660    23.3030 ca         1 QDB      -0.131000
      7 C07          2.9820     0.0950    19.6270 c          1 QDB       0.596300
      8 C09          3.4240     1.3820    19.0250 ca         1 QDB      -0.207600
      9 C10          4.3620     2.2110    19.6480 ca         1 QDB      -0.094500
     10 C11          4.7910     3.3750    19.0250 ca         1 QDB      -0.105500
     11 C12          4.2860     3.7490    17.7800 ca         1 QDB      -0.098600
     12 C13          3.3490     2.9180    17.1610 ca         1 QDB      -0.105500
     13 C14          2.9310     1.7450    17.7670 ca         1 QDB      -0.094500
     14 C15          4.7450     5.0430    17.1030 c          1 QDB       0.703600
     15 O08          2.6810    -0.8520    18.9090 o          1 QDB      -0.555100
     16 O16          4.2940     5.2670    15.9520 o          1 QDB      -0.715500
     17 O17          5.5330     5.7750    17.7520 o          1 QDB      -0.715500
     18 H011         2.5860    -0.5170    24.9400 ha         1 QDB       0.102000
     19 H021         3.2010    -2.4350    23.4970 ha         1 QDB       0.107500
     20 H031         3.3760    -2.1280    21.0470 ha         1 QDB       0.129500
     21 H051         2.3740     2.0140    21.4950 ha         1 QDB       0.129500
     22 H061         2.1590     1.7030    23.9300 ha         1 QDB       0.107500
     23 H101         4.7730     1.9350    20.6100 ha         1 QDB       0.099500
     24 H111         5.5260     4.0090    19.5020 ha         1 QDB       0.133500
     25 H131         2.9560     3.2070    16.1960 ha         1 QDB       0.133500
     26 H141         2.2090     1.1020    17.2800 ha         1 QDB       0.099500
@<TRIPOS>BOND
     1     1     2 ar  
     2     1     6 ar  
     3     1    18 1   
     4     2     3 ar  
     5     2    19 1   
     6     3     4 ar  
     7     3    20 1   
     8     4     5 ar  
     9     4     7 1   
    10     5     6 ar  
    11     5    21 1   
    12     6    22 1   
    13     7     8 1   
    14     7    15 2   
    15     8     9 ar  
    16     8    13 ar  
    17     9    10 ar  
    18     9    23 1   
    19    10    11 ar  
    20    10    24 1   
    21    11    12 ar  
    22    11    14 1   
    23    12    13 ar  
    24    12    25 1   
    25    13    26 1   
    26    14    16 1   
    27    14    17 1   
@<TRIPOS>SUBSTRUCTURE
     1 QDB         1 TEMP              0 ****  ****    0 ROOT
