@<TRIPOS>MOLECULE
QDC
   26    25     1     0     0
SMALL
No Charge or Current Charge


@<TRIPOS>ATOM
      1 C7          17.5330   312.9060    43.7320 c3         1 QDC      -0.181400
      2 C8          17.1560   311.8410    42.6810 c          1 QDC       0.703000
      3 O1          20.2760   315.2490    45.7090 o          1 QDC      -0.732000
      4 C1          18.7630   313.3220    45.9440 c          1 QDC       0.465100
      5 C5          21.0760   310.4240    45.4620 c3         1 QDC      -0.066400
      6 C6          20.9060   309.2810    44.4410 c3         1 QDC      -0.092100
      7 C4          21.2380   311.8300    44.8310 c3         1 QDC      -0.075400
      8 O4          18.5590   312.8480    47.0680 o          1 QDC      -0.619100
      9 C3          20.0550   312.3190    43.9520 c3         1 QDC      -0.053400
     10 O3          17.6890   311.8910    41.5830 o          1 QDC      -0.766000
     11 C2          18.6810   312.4280    44.6770 c3         1 QDC      -0.141700
     12 C           19.1000   314.8930    45.7210 c          1 QDC       0.649000
     13 O           18.1640   315.6860    45.6280 o          1 QDC      -0.732000
     14 O2          16.3500   310.9790    42.9970 o          1 QDC      -0.766000
     15 H1          17.8860   313.8210    43.2400 hc         1 QDC       0.037200
     16 H2          16.6730   313.0710    44.3920 hc         1 QDC       0.037200
     17 H4          20.2250   310.4210    46.1540 hc         1 QDC       0.020700
     18 H5          21.9650   310.2160    46.0700 hc         1 QDC       0.020700
     19 H6          20.8880   308.3130    44.9550 hc         1 QDC       0.026700
     20 H7          19.9670   309.3850    43.8850 hc         1 QDC       0.026700
     21 H8          21.7370   309.2730    43.7250 hc         1 QDC       0.026700
     22 H9          22.1470   311.8320    44.2170 hc         1 QDC       0.031700
     23 H10         21.4170   312.5550    45.6340 hc         1 QDC       0.031700
     24 H11         19.9620   311.6480    43.0910 hc         1 QDC       0.045700
     25 H12         20.3190   313.3000    43.5380 hc         1 QDC       0.045700
     26 H13         18.4080   311.4240    45.0230 hc         1 QDC       0.056700
@<TRIPOS>BOND
     1     1     2 1   
     2     1    11 1   
     3     1    15 1   
     4     1    16 1   
     5     2    10 1   
     6     2    14 1   
     7     3    12 1   
     8     4     8 2   
     9     4    11 1   
    10     4    12 1   
    11     5     6 1   
    12     5     7 1   
    13     5    17 1   
    14     5    18 1   
    15     6    19 1   
    16     6    20 1   
    17     6    21 1   
    18     7     9 1   
    19     7    22 1   
    20     7    23 1   
    21     9    11 1   
    22     9    24 1   
    23     9    25 1   
    24    11    26 1   
    25    12    13 1   
@<TRIPOS>SUBSTRUCTURE
     1 QDC         1 TEMP              0 ****  ****    0 ROOT
