@<TRIPOS>MOLECULE
QDC
   26    25     1     0     0
SMALL
abcg2


@<TRIPOS>ATOM
      1 C7          17.5400   312.7950    43.7680 c3         1 QDC      -0.181400
      2 C8          17.2660   311.6750    42.7400 c          1 QDC       0.703000
      3 O1          20.4490   314.9500    46.3550 o          1 QDC      -0.732000
      4 C1          18.6730   313.4440    45.8890 c          1 QDC       0.465100
      5 C5          21.0210   310.4460    45.4240 c3         1 QDC      -0.066400
      6 C6          20.8300   309.3750    44.3520 c3         1 QDC      -0.092100
      7 C4          21.1960   311.8640    44.8680 c3         1 QDC      -0.075400
      8 O4          18.0660   313.2040    46.9240 o          1 QDC      -0.619100
      9 C3          20.0330   312.3810    44.0140 c3         1 QDC      -0.053400
     10 O3          17.1380   312.0270    41.5380 o          1 QDC      -0.766000
     11 C2          18.6860   312.4530    44.7400 c3         1 QDC      -0.141700
     12 C           19.3810   314.7960    45.7230 c          1 QDC       0.649000
     13 O           18.7920   315.6150    44.9790 o          1 QDC      -0.732000
     14 O2          17.1610   310.5020    43.1810 o          1 QDC      -0.766000
     15 H1          17.7540   313.7270    43.2470 hc         1 QDC       0.037200
     16 H2          16.6170   312.9400    44.3390 hc         1 QDC       0.037200
     17 H4          20.1740   310.4230    46.1160 hc         1 QDC       0.020700
     18 H5          21.9050   310.2040    46.0220 hc         1 QDC       0.020700
     19 H6          20.7870   308.3780    44.7970 hc         1 QDC       0.026700
     20 H7          19.9060   309.5270    43.7920 hc         1 QDC       0.026700
     21 H8          21.6580   309.3870    43.6370 hc         1 QDC       0.026700
     22 H9          22.1070   311.8920    44.2600 hc         1 QDC       0.031700
     23 H10         21.3590   312.5540    45.6990 hc         1 QDC       0.031700
     24 H11         19.9080   311.7410    43.1370 hc         1 QDC       0.045700
     25 H12         20.2850   313.3740    43.6290 hc         1 QDC       0.045700
     26 H13         18.4470   311.4830    45.1800 hc         1 QDC       0.056700
@<TRIPOS>BOND
     1     1     2 1   
     2     1    11 1   
     3     1    15 1   
     4     1    16 1   
     5     2    10 1   
     6     2    14 1   
     7     3    12 1   
     8     4     8 2   
     9     4    11 1   
    10     4    12 1   
    11     5     6 1   
    12     5     7 1   
    13     5    17 1   
    14     5    18 1   
    15     6    19 1   
    16     6    20 1   
    17     6    21 1   
    18     7     9 1   
    19     7    22 1   
    20     7    23 1   
    21     9    11 1   
    22     9    24 1   
    23     9    25 1   
    24    11    26 1   
    25    12    13 1   
@<TRIPOS>SUBSTRUCTURE
     1 QDC         1 TEMP              0 ****  ****    0 ROOT
