@<TRIPOS>MOLECULE
QDD
   26    27     1     0     0
SMALL
No Charge or Current Charge


@<TRIPOS>ATOM
      1 OD1         -3.4470     1.5490     0.9430 o          1 QDD      -0.716500
      2 CG          -3.2630     0.5180     0.3140 c          1 QDD       0.726000
      3 OD2         -3.6260    -0.5820     0.7000 o          1 QDD      -0.716500
      4 CB          -2.4000     0.5970    -0.9520 c3         1 QDD      -0.205100
      5 C8          -0.9170     0.5090    -0.5700 ca         1 QDD       0.055700
      6 C9          -0.2050     1.7120    -0.4170 ca         1 QDD      -0.164000
      7 C10          1.1580     1.6990    -0.0790 ca         1 QDD       0.250500
      8 C            1.8930     3.0260     0.0760 c          1 QDD       0.485400
      9 O            3.0850     3.1440     0.3660 o          1 QDD      -0.524100
     10 N11          1.8250     0.5280     0.1070 nb         1 QDD      -0.658000
     11 C7           1.1680    -0.6620    -0.0280 ca         1 QDD       0.213000
     12 C6          -0.2160    -0.7120    -0.3690 ca         1 QDD      -0.011000
     13 C5          -0.8560    -1.9690    -0.4980 ca         1 QDD      -0.112000
     14 C4          -0.1480    -3.1620    -0.3030 ca         1 QDD      -0.080000
     15 C3           1.2110    -3.1250     0.0280 ca         1 QDD      -0.223000
     16 C2           1.8700    -1.8970     0.1700 ca         1 QDD       0.328000
     17 N            3.2120    -1.9330     0.5010 nv         1 QDD      -1.086000
     18 H2          -2.6350    -0.2230    -1.6390 hc         1 QDD       0.038200
     19 H3          -2.5480     1.5730    -1.4280 hc         1 QDD       0.038200
     20 H4          -0.7100     2.6640    -0.5580 ha         1 QDD       0.114000
     21 H5           1.2710     3.9330    -0.0930 h4         1 QDD      -0.017800
     22 H6          -1.9100    -2.0460    -0.7450 ha         1 QDD       0.141000
     23 H7          -0.6570    -4.1190    -0.4060 ha         1 QDD       0.098000
     24 H8           1.7500    -4.0570     0.1790 ha         1 QDD       0.096000
     25 H9           3.7360    -2.7970     0.3810 hn         1 QDD       0.464500
     26 H10          3.7290    -1.0560     0.4560 hn         1 QDD       0.464500
@<TRIPOS>BOND
     1     1     2 1   
     2     2     3 1   
     3     2     4 1   
     4     4     5 1   
     5     4    18 1   
     6     4    19 1   
     7     5     6 ar  
     8     5    12 ar  
     9     6     7 ar  
    10     6    20 1   
    11     7     8 1   
    12     7    10 ar  
    13     8     9 2   
    14     8    21 1   
    15    10    11 ar  
    16    11    12 ar  
    17    11    16 ar  
    18    12    13 ar  
    19    13    14 ar  
    20    13    22 1   
    21    14    15 ar  
    22    14    23 1   
    23    15    16 ar  
    24    15    24 1   
    25    16    17 1   
    26    17    25 1   
    27    17    26 1   
@<TRIPOS>SUBSTRUCTURE
     1 QDD         1 TEMP              0 ****  ****    0 ROOT
