@<TRIPOS>MOLECULE
QDD
   26    27     1     0     0
SMALL
bcc


@<TRIPOS>ATOM
      1 OD1         -2.8110     0.3930     1.4060 o          1 QDD      -0.821800
      2 CG          -3.2990     0.2600     0.2700 c          1 QDD       0.936600
      3 OD2         -4.4660    -0.0570    -0.0220 o          1 QDD      -0.821800
      4 CB          -2.3640     0.5570    -0.9340 c3         1 QDD      -0.205100
      5 C8          -0.9160     0.5390    -0.5820 ca         1 QDD       0.055700
      6 C9          -0.1890     1.6990    -0.4840 ca         1 QDD      -0.247300
      7 C10          1.1760     1.6530    -0.1530 ca         1 QDD       0.315800
      8 C            1.9290     2.9250    -0.0610 c          1 QDD       0.485400
      9 O            3.1030     3.0020     0.2060 o          1 QDD      -0.524100
     10 N11          1.8240     0.5360     0.0760 nb         1 QDD      -0.658000
     11 C7           1.1480    -0.6170    -0.0090 ca         1 QDD       0.343600
     12 C6          -0.2340    -0.6850    -0.3390 ca         1 QDD      -0.076300
     13 C5          -0.8640    -1.9440    -0.4150 ca         1 QDD      -0.130000
     14 C4          -0.1290    -3.0790    -0.1830 ca         1 QDD      -0.098000
     15 C3           1.2340    -3.0320     0.1450 ca         1 QDD      -0.241000
     16 C2           1.8920    -1.8210     0.2470 ca         1 QDD       0.124300
     17 N            3.1970    -1.7160     0.6170 nv         1 QDD      -0.837200
     18 H2          -2.5740    -0.1460    -1.7440 hc         1 QDD       0.038200
     19 H3          -2.6290     1.5470    -1.3180 hc         1 QDD       0.038200
     20 H4          -0.6600     2.6570    -0.6690 ha         1 QDD       0.132000
     21 H5           1.3250     3.8280    -0.2580 h4         1 QDD      -0.017800
     22 H6          -1.9140    -2.0210    -0.6590 ha         1 QDD       0.159000
     23 H7          -0.6090    -4.0480    -0.2500 ha         1 QDD       0.116000
     24 H8           1.7730    -3.9530     0.3260 ha         1 QDD       0.114000
     25 H9           3.7800    -2.5270     0.5020 hn         1 QDD       0.409300
     26 H10          3.6480    -0.8370     0.4230 hn         1 QDD       0.409300
@<TRIPOS>BOND
     1     1     2 1   
     2     2     3 1   
     3     2     4 1   
     4     4     5 1   
     5     4    18 1   
     6     4    19 1   
     7     5     6 ar  
     8     5    12 ar  
     9     6     7 ar  
    10     6    20 1   
    11     7     8 1   
    12     7    10 ar  
    13     8     9 2   
    14     8    21 1   
    15    10    11 ar  
    16    11    12 ar  
    17    11    16 ar  
    18    12    13 ar  
    19    13    14 ar  
    20    13    22 1   
    21    14    15 ar  
    22    14    23 1   
    23    15    16 ar  
    24    15    24 1   
    25    16    17 1   
    26    17    25 1   
    27    17    26 1   
@<TRIPOS>SUBSTRUCTURE
     1 QDD         1 TEMP              0 ****  ****    0 ROOT
