@<TRIPOS>MOLECULE
QDE
   51    53     1     0     0
SMALL
abcg2


@<TRIPOS>ATOM
      1 N1         -10.2660   -30.1110    21.2100 nu         1 QDE      -0.897100
      2 N3          -5.9340   -34.5190    23.4320 n3         1 QDE      -0.710600
      3 C4          -9.2810   -29.8000    23.4010 ca         1 QDE      -0.064000
      4 C5         -10.3900   -29.9530    22.6030 ca         1 QDE       0.197000
      5 C6          -8.1130   -31.3340    20.1320 c3         1 QDE      -0.347100
      6 C7          -7.9300   -28.2090    25.9850 c6         1 QDE       0.179800
      7 C8          -6.8540   -28.2570    27.0430 c6         1 QDE       0.149600
      8 C10         -5.0070   -31.1510    26.0180 ca         1 QDE      -0.114000
      9 C13         -6.7980   -34.1430    24.5350 c3         1 QDE       0.208100
     10 C15         -6.0820   -35.9240    23.1180 c3         1 QDE       0.147600
     11 C17         -7.3030   -30.5200    25.5940 ca         1 QDE       0.230000
     12 O2          -9.8370   -32.5740    21.6770 o          1 QDE      -0.534500
     13 S           -9.8030   -31.5990    20.5990 s6         1 QDE       1.190100
     14 O1         -10.5830   -31.8220    19.3920 o          1 QDE      -0.534500
     15 C1         -11.6510   -29.9590    23.2330 ca         1 QDE       0.577300
     16 O          -12.7110   -30.1070    22.4460 os         1 QDE      -0.467300
     17 C          -14.0010   -30.0890    23.0440 c3         1 QDE       0.161900
     18 C3          -9.4280   -29.7010    24.7860 ca         1 QDE       0.190000
     19 C2         -10.7120   -29.7100    25.2940 ca         1 QDE       0.391900
     20 N          -11.7970   -29.8160    24.5290 nb         1 QDE      -0.739000
     21 N2          -8.3190   -29.5670    25.6460 nh         1 QDE      -0.828200
     22 C9          -6.0210   -30.2050    26.0670 ca         1 QDE       0.072100
     23 O3          -5.7280   -28.9790    26.5750 os         1 QDE      -0.339100
     24 C16         -7.5230   -31.8100    25.1040 ca         1 QDE      -0.130000
     25 C12         -6.5120   -32.7590    25.0530 ca         1 QDE      -0.078300
     26 C11         -5.2400   -32.4160    25.5030 ca         1 QDE      -0.092000
     27 C14         -6.1710   -33.7000    22.2630 c3         1 QDE       0.147600
     28 H1         -10.9830   -29.6750    20.6410 hn         1 QDE       0.510000
     29 H3          -8.2940   -29.7690    22.9560 ha         1 QDE       0.134000
     30 H4          -7.5350   -31.0440    21.0060 h1         1 QDE       0.104367
     31 H5          -7.7270   -32.2670    19.7260 h1         1 QDE       0.104367
     32 H6          -8.0740   -30.5500    19.3800 h1         1 QDE       0.104367
     33 H7          -7.5670   -27.6580    25.1070 h1         1 QDE       0.050700
     34 H8          -8.7960   -27.6720    26.3750 h1         1 QDE       0.050700
     35 H9          -6.5110   -27.2520    27.2820 h1         1 QDE       0.063700
     36 H10         -7.2430   -28.7160    27.9590 h1         1 QDE       0.063700
     37 H11         -4.0240   -30.8790    26.3840 ha         1 QDE       0.126000
     38 H12         -7.8650   -34.2140    24.2620 h1         1 QDE       0.043700
     39 H13         -6.6410   -34.8670    25.3410 h1         1 QDE       0.043700
     40 H14         -5.8470   -36.5310    23.9940 h1         1 QDE       0.031033
     41 H15         -7.0970   -36.1920    22.7860 h1         1 QDE       0.031033
     42 H16         -5.3890   -36.2030    22.3230 h1         1 QDE       0.031033
     43 H17        -14.7050   -30.2540    22.2330 h1         1 QDE       0.051700
     44 H18        -14.1130   -30.8800    23.7860 h1         1 QDE       0.051700
     45 H19        -14.2110   -29.1290    23.5170 h1         1 QDE       0.051700
     46 H20        -10.8720   -29.6290    26.3630 h4         1 QDE       0.035100
     47 H21         -8.5070   -32.0830    24.7420 ha         1 QDE       0.127000
     48 H22         -4.4350   -33.1380    25.4610 ha         1 QDE       0.129000
     49 H23         -5.9700   -32.6520    22.4850 h1         1 QDE       0.031033
     50 H24         -5.5030   -34.0030    21.4560 h1         1 QDE       0.031033
     51 H25         -7.2050   -33.7730    21.8900 h1         1 QDE       0.031033
@<TRIPOS>BOND
     1     1     4 1   
     2     1    13 1   
     3     1    28 1   
     4     2     9 1   
     5     2    10 1   
     6     2    27 1   
     7     3     4 ar  
     8     3    18 ar  
     9     3    29 1   
    10     4    15 ar  
    11     5    13 1   
    12     5    30 1   
    13     5    31 1   
    14     5    32 1   
    15     6     7 1   
    16     6    21 1   
    17     6    33 1   
    18     6    34 1   
    19     7    23 1   
    20     7    35 1   
    21     7    36 1   
    22     8    22 ar  
    23     8    26 ar  
    24     8    37 1   
    25     9    25 1   
    26     9    38 1   
    27     9    39 1   
    28    10    40 1   
    29    10    41 1   
    30    10    42 1   
    31    11    21 1   
    32    11    22 ar  
    33    11    24 ar  
    34    12    13 2   
    35    13    14 2   
    36    15    16 1   
    37    15    20 ar  
    38    16    17 1   
    39    17    43 1   
    40    17    44 1   
    41    17    45 1   
    42    18    19 ar  
    43    18    21 1   
    44    19    20 ar  
    45    19    46 1   
    46    22    23 1   
    47    24    25 ar  
    48    24    47 1   
    49    25    26 ar  
    50    26    48 1   
    51    27    49 1   
    52    27    50 1   
    53    27    51 1   
@<TRIPOS>SUBSTRUCTURE
     1 QDE         1 TEMP              0 ****  ****    0 ROOT
