@<TRIPOS>MOLECULE
QDE
   51    53     1     0     0
SMALL
No Charge or Current Charge


@<TRIPOS>ATOM
      1 N1         -10.5080   -30.1970    21.1380 nu         1 QDE      -0.897100
      2 N3          -5.5810   -34.5850    23.3870 n3         1 QDE      -0.710600
      3 C4          -9.4010   -29.8660    23.2890 ca         1 QDE      -0.064000
      4 C5         -10.5810   -29.9540    22.5290 ca         1 QDE       0.197000
      5 C6          -8.4690   -32.0220    20.8830 c3         1 QDE      -0.347100
      6 C7          -7.9900   -28.1650    26.0480 c6         1 QDE       0.179800
      7 C8          -6.8750   -28.2360    27.1230 c6         1 QDE       0.149600
      8 C10         -4.9430   -31.1440    26.0130 ca         1 QDE      -0.114000
      9 C13         -6.6560   -34.1220    24.3010 c3         1 QDE       0.208100
     10 C15         -5.7200   -36.0140    23.0310 c3         1 QDE       0.147600
     11 C17         -7.2460   -30.4900    25.4620 ca         1 QDE       0.230000
     12 O2         -11.0380   -32.6240    21.1200 o          1 QDE      -0.534500
     13 S          -10.1580   -31.6650    20.4530 s6         1 QDE       1.190100
     14 O1         -10.2580   -31.4430    19.0110 o          1 QDE      -0.534500
     15 C1         -11.8320   -29.7560    23.2020 ca         1 QDE       0.577300
     16 O          -12.9890   -29.8100    22.4470 os         1 QDE      -0.467300
     17 C          -14.2880   -29.6400    23.0490 c3         1 QDE       0.161900
     18 C3          -9.4790   -29.6190    24.6720 ca         1 QDE       0.190000
     19 C2         -10.7730   -29.4420    25.2370 ca         1 QDE       0.391900
     20 N          -11.9300   -29.5060    24.5290 nb         1 QDE      -0.739000
     21 N2          -8.2880   -29.5050    25.4510 nh         1 QDE      -0.828200
     22 C9          -5.9780   -30.1970    26.0410 ca         1 QDE       0.072100
     23 O3          -5.7330   -28.9830    26.6520 os         1 QDE      -0.339100
     24 C16         -7.4480   -31.7760    24.9130 ca         1 QDE      -0.130000
     25 C12         -6.4130   -32.7340    24.8950 ca         1 QDE      -0.078300
     26 C11         -5.1590   -32.4080    25.4450 ca         1 QDE      -0.092000
     27 C14         -5.4150   -33.7250    22.1930 c3         1 QDE       0.147600
     28 H1         -11.3770   -29.9900    20.6550 hn         1 QDE       0.510000
     29 H3          -8.4310   -29.9620    22.8120 ha         1 QDE       0.134000
     30 H4          -8.4220   -32.1720    21.9650 h1         1 QDE       0.104367
     31 H5          -8.1870   -32.9340    20.3480 h1         1 QDE       0.104367
     32 H6          -7.8600   -31.1700    20.5640 h1         1 QDE       0.104367
     33 H7          -7.6720   -27.4690    25.2580 h1         1 QDE       0.050700
     34 H8          -8.8900   -27.7420    26.5180 h1         1 QDE       0.050700
     35 H9          -6.5580   -27.2260    27.4150 h1         1 QDE       0.063700
     36 H10         -7.2720   -28.7390    28.0160 h1         1 QDE       0.063700
     37 H11         -3.9770   -30.9030    26.4500 ha         1 QDE       0.126000
     38 H12         -7.6200   -34.1260    23.7720 h1         1 QDE       0.043700
     39 H13         -6.7550   -34.8250    25.1400 h1         1 QDE       0.043700
     40 H14         -5.7530   -36.6380    23.9340 h1         1 QDE       0.031033
     41 H15         -6.6420   -36.1870    22.4590 h1         1 QDE       0.031033
     42 H16         -4.8690   -36.3470    22.4220 h1         1 QDE       0.031033
     43 H17        -15.0750   -29.7200    22.2890 h1         1 QDE       0.051700
     44 H18        -14.4710   -30.4090    23.8100 h1         1 QDE       0.051700
     45 H19        -14.3740   -28.6530    23.5230 h1         1 QDE       0.051700
     46 H20        -10.8800   -29.2380    26.3020 h4         1 QDE       0.035100
     47 H21         -8.4160   -32.0460    24.5040 ha         1 QDE       0.127000
     48 H22         -4.3550   -33.1410    25.4380 ha         1 QDE       0.129000
     49 H23         -5.2420   -32.6790    22.4780 h1         1 QDE       0.031033
     50 H24         -4.5540   -34.0550    21.5970 h1         1 QDE       0.031033
     51 H25         -6.3070   -33.7670    21.5560 h1         1 QDE       0.031033
@<TRIPOS>BOND
     1     1     4 1   
     2     1    13 1   
     3     1    28 1   
     4     2     9 1   
     5     2    10 1   
     6     2    27 1   
     7     3     4 ar  
     8     3    18 ar  
     9     3    29 1   
    10     4    15 ar  
    11     5    13 1   
    12     5    30 1   
    13     5    31 1   
    14     5    32 1   
    15     6     7 1   
    16     6    21 1   
    17     6    33 1   
    18     6    34 1   
    19     7    23 1   
    20     7    35 1   
    21     7    36 1   
    22     8    22 ar  
    23     8    26 ar  
    24     8    37 1   
    25     9    25 1   
    26     9    38 1   
    27     9    39 1   
    28    10    40 1   
    29    10    41 1   
    30    10    42 1   
    31    11    21 1   
    32    11    22 ar  
    33    11    24 ar  
    34    12    13 2   
    35    13    14 2   
    36    15    16 1   
    37    15    20 ar  
    38    16    17 1   
    39    17    43 1   
    40    17    44 1   
    41    17    45 1   
    42    18    19 ar  
    43    18    21 1   
    44    19    20 ar  
    45    19    46 1   
    46    22    23 1   
    47    24    25 ar  
    48    24    47 1   
    49    25    26 ar  
    50    26    48 1   
    51    27    49 1   
    52    27    50 1   
    53    27    51 1   
@<TRIPOS>SUBSTRUCTURE
     1 QDE         1 TEMP              0 ****  ****    0 ROOT
