@<TRIPOS>MOLECULE
QDF
   39    42     1     0     0
SMALL
abcg2


@<TRIPOS>ATOM
      1 N1         -20.0460     5.6430    27.3870 ns         1 QDF      -0.161000
      2 C4         -22.3230     7.0720    31.0050 c          1 QDF       0.585000
      3 C5         -22.6620     7.0570    29.5330 c6         1 QDF      -0.144400
      4 C6         -22.0370     5.8960    28.7600 c6         1 QDF      -0.080400
      5 C7         -20.5360     6.1230    28.5580 c          1 QDF       0.599100
      6 C8         -18.6800     5.6600    27.0190 ca         1 QDF      -0.085000
      7 C10        -16.0190     5.5910    26.4000 ca         1 QDF       0.357900
      8 C13        -17.2980     7.4910    23.4700 ca         1 QDF      -0.111000
      9 C15        -19.1550     6.9790    24.9420 ca         1 QDF      -0.108000
     10 C17        -22.2160     4.5950    29.5140 ca         1 QDF      -0.134300
     11 O1         -19.8480     6.6670    29.4120 o          1 QDF      -0.562100
     12 N          -22.1780     5.8500    31.5860 ns         1 QDF      -0.143000
     13 C3         -22.2520     4.6250    30.9130 ca         1 QDF       0.016000
     14 C2         -22.3530     3.4370    31.6350 ca         1 QDF      -0.152000
     15 C1         -22.4180     2.2180    30.9750 ca         1 QDF      -0.056000
     16 C18        -22.2930     3.3740    28.8570 ca         1 QDF      -0.062000
     17 C          -22.3920     2.1990    29.5870 ca         1 QDF       0.090000
     18 CL         -22.4830     0.6680    28.7410 cl         1 QDF      -0.203000
     19 C16        -18.2760     6.2990    25.8170 ca         1 QDF      -0.018000
     20 C14        -18.6710     7.5590    23.7960 ca         1 QDF      -0.087000
     21 C12        -16.4230     6.8490    24.3070 ca         1 QDF      -0.077000
     22 C11        -16.8900     6.2440    25.4970 ca         1 QDF      -0.092000
     23 N2         -16.4150     5.0220    27.5170 nb         1 QDF      -0.649000
     24 C9         -17.7380     5.0520    27.8110 ca         1 QDF       0.337900
     25 H1         -20.7050     5.2720    26.7190 hn         1 QDF       0.154000
     26 H2         -22.3770     8.0180    29.1100 hc         1 QDF       0.083200
     27 H3         -23.7510     6.9750    29.4670 hc         1 QDF       0.083200
     28 H4         -22.5200     5.8120    27.7870 hc         1 QDF       0.067700
     29 H5         -14.9590     5.5500    26.1690 h4         1 QDF       0.022100
     30 H6         -16.9420     7.9550    22.5590 ha         1 QDF       0.119000
     31 H7         -20.2070     7.0470    25.1840 ha         1 QDF       0.113000
     32 H8         -22.0400     5.8400    32.5880 hn         1 QDF       0.166000
     33 H9         -22.3810     3.4690    32.7170 ha         1 QDF       0.127000
     34 H10        -22.4950     1.2970    31.5350 ha         1 QDF       0.135000
     35 H11        -22.2670     3.3440    27.7750 ha         1 QDF       0.125000
     36 H12        -19.3490     8.0810    23.1320 ha         1 QDF       0.116000
     37 H13        -15.3660     6.7970    24.0730 ha         1 QDF       0.120000
     38 H14        -18.0430     4.5610    28.7270 h4         1 QDF       0.034100
     39 O          -22.2450     8.1040    31.6600 o          1 QDF      -0.529000
@<TRIPOS>BOND
     1     1     5 1   
     2     1     6 1   
     3     1    25 1   
     4     2     3 1   
     5     2    12 1   
     6     2    39 2   
     7     3     4 1   
     8     3    26 1   
     9     3    27 1   
    10     4     5 1   
    11     4    10 1   
    12     4    28 1   
    13     5    11 2   
    14     6    19 ar  
    15     6    24 ar  
    16     7    22 ar  
    17     7    23 ar  
    18     7    29 1   
    19     8    20 ar  
    20     8    21 ar  
    21     8    30 1   
    22     9    19 ar  
    23     9    20 ar  
    24     9    31 1   
    25    10    13 ar  
    26    10    16 ar  
    27    12    13 1   
    28    12    32 1   
    29    13    14 ar  
    30    14    15 ar  
    31    14    33 1   
    32    15    17 ar  
    33    15    34 1   
    34    16    17 ar  
    35    16    35 1   
    36    17    18 1   
    37    19    22 ar  
    38    20    36 1   
    39    21    22 ar  
    40    21    37 1   
    41    23    24 ar  
    42    24    38 1   
@<TRIPOS>SUBSTRUCTURE
     1 QDF         1 TEMP              0 ****  ****    0 ROOT
