@<TRIPOS>MOLECULE
QDF
   39    42     1     0     0
SMALL
No Charge or Current Charge


@<TRIPOS>ATOM
      1 N1         -19.6810     5.7880    27.4810 ns         1 QDF      -0.161000
      2 C4         -22.3570     7.0550    30.7320 c          1 QDF       0.585000
      3 C5         -22.2800     6.8190    29.2140 c6         1 QDF      -0.144400
      4 C6         -21.7280     5.4130    28.8240 c6         1 QDF      -0.080400
      5 C7         -20.1810     5.4270    28.7260 c          1 QDF       0.599100
      6 C8         -18.3480     5.8680    26.9740 ca         1 QDF      -0.085000
      7 C10        -15.7490     5.9790    26.0190 ca         1 QDF       0.357900
      8 C13        -17.5200     7.7660    23.2720 ca         1 QDF      -0.111000
      9 C15        -19.1380     7.0940    24.9650 ca         1 QDF      -0.108000
     10 C17        -22.2420     4.2940    29.7440 ca         1 QDF      -0.134300
     11 O1         -19.4750     5.1040    29.6740 o          1 QDF      -0.562100
     12 N          -22.5990     5.9360    31.5010 ns         1 QDF      -0.143000
     13 C3         -22.6430     4.5980    31.0600 ca         1 QDF       0.016000
     14 C2         -23.0750     3.5770    31.9240 ca         1 QDF      -0.152000
     15 C1         -23.1170     2.2460    31.4700 ca         1 QDF      -0.056000
     16 C18        -22.2840     2.9590    29.2950 ca         1 QDF      -0.062000
     17 C          -22.7230     1.9400    30.1570 ca         1 QDF       0.090000
     18 Cl         -22.7720     0.2750    29.5910 cl         1 QDF      -0.203000
     19 C16        -18.1050     6.5070    25.7330 ca         1 QDF      -0.018000
     20 C14        -18.8420     7.7190    23.7410 ca         1 QDF      -0.087000
     21 C12        -16.4860     7.1880    24.0270 ca         1 QDF      -0.077000
     22 C11        -16.7780     6.5610    25.2550 ca         1 QDF      -0.092000
     23 N2         -15.9680     5.3600    27.2000 nb         1 QDF      -0.649000
     24 C9         -17.2390     5.3090    27.6600 ca         1 QDF       0.337900
     25 H1         -20.3930     6.0360    26.8060 hn         1 QDF       0.154000
     26 H2         -21.7760     7.6570    28.7140 hc         1 QDF       0.083200
     27 H3         -23.3270     6.8280    28.8840 hc         1 QDF       0.083200
     28 H4         -22.0930     5.2540    27.7990 hc         1 QDF       0.067700
     29 H5         -14.7160     6.0050    25.6750 h4         1 QDF       0.022100
     30 H6         -17.2950     8.2510    22.3240 ha         1 QDF       0.119000
     31 H7         -20.1710     7.0780    25.3010 ha         1 QDF       0.113000
     32 H8         -22.6920     6.0850    32.4970 hn         1 QDF       0.166000
     33 H9         -23.3810     3.8110    32.9410 ha         1 QDF       0.127000
     34 H10        -23.4530     1.4530    32.1340 ha         1 QDF       0.135000
     35 H11        -21.9730     2.7100    28.2830 ha         1 QDF       0.125000
     36 H12        -19.6410     8.1680    23.1550 ha         1 QDF       0.116000
     37 H13        -15.4630     7.2280    23.6590 ha         1 QDF       0.120000
     38 H14        -17.3560     4.7820    28.6040 h4         1 QDF       0.034100
     39 O          -22.1880     8.1630    31.2250 o          1 QDF      -0.529000
@<TRIPOS>BOND
     1     1     5 1   
     2     1     6 1   
     3     1    25 1   
     4     2     3 1   
     5     2    12 1   
     6     2    39 2   
     7     3     4 1   
     8     3    26 1   
     9     3    27 1   
    10     4     5 1   
    11     4    10 1   
    12     4    28 1   
    13     5    11 2   
    14     6    19 ar  
    15     6    24 ar  
    16     7    22 ar  
    17     7    23 ar  
    18     7    29 1   
    19     8    20 ar  
    20     8    21 ar  
    21     8    30 1   
    22     9    19 ar  
    23     9    20 ar  
    24     9    31 1   
    25    10    13 ar  
    26    10    16 ar  
    27    12    13 1   
    28    12    32 1   
    29    13    14 ar  
    30    14    15 ar  
    31    14    33 1   
    32    15    17 ar  
    33    15    34 1   
    34    16    17 ar  
    35    16    35 1   
    36    17    18 1   
    37    19    22 ar  
    38    20    36 1   
    39    21    22 ar  
    40    21    37 1   
    41    23    24 ar  
    42    24    38 1   
@<TRIPOS>SUBSTRUCTURE
     1 QDF         1 TEMP              0 ****  ****    0 ROOT
