@<TRIPOS>MOLECULE
QDG
   87    93     1     0     0
SMALL
bcc


@<TRIPOS>ATOM
      1 C10          6.2680     1.5510    -1.2720 c3         1 QDG       0.014300
      2 C13          3.0930     0.9380    -0.0560 cc         1 QDG       0.532900
      3 C15          4.8770     1.5310     0.8410 cd         1 QDG       0.427400
      4 C17          6.6840    -1.5500    -1.7640 c5         1 QDG       0.112100
      5 C18          5.2650    -1.7860    -2.2360 c3         1 QDG       0.122400
      6 C20          3.2270    -2.2920    -1.1160 ca         1 QDG       0.117100
      7 CL01         9.5000    -1.5790    -0.0520 cl         1 QDG      -0.085400
      8 C02          9.2620    -0.0230     0.6630 ca         1 QDG       0.081400
      9 C03          8.2800     0.8660     0.2130 ca         1 QDG      -0.076300
     10 C04          8.2290     2.1070     0.8380 ca         1 QDG      -0.106000
     11 C05          9.0770     2.4590     1.8770 ca         1 QDG      -0.126000
     12 C06         10.0170     1.5420     2.3050 ca         1 QDG       0.047400
     13 CL07        11.0870     1.9430     3.5990 cl         1 QDG      -0.089400
     14 C08         10.1210     0.3000     1.7000 ca         1 QDG      -0.125000
     15 C09          7.3440     0.4880    -0.9250 c5         1 QDG       0.384900
     16 N11          5.0680     1.4260    -0.4780 na         1 QDG      -0.026400
     17 N12          3.9250     1.0430    -1.0610 nd         1 QDG      -0.558800
     18 N14          3.6340     1.2340     1.1440 nc         1 QDG      -0.700000
     19 O16          6.7170    -0.7190    -0.6150 os         1 QDG      -0.388600
     20 O19          4.5700    -2.4390    -1.1940 os         1 QDG      -0.311900
     21 C21          2.6330    -2.5940     0.1090 ca         1 QDG      -0.154000
     22 C22          1.2720    -2.4500     0.2860 ca         1 QDG      -0.137500
     23 C23          0.4450    -1.9780    -0.7420 ca         1 QDG       0.100600
     24 C24          1.0490    -1.7000    -1.9670 ca         1 QDG      -0.137500
     25 C25          2.4180    -1.8700    -2.1590 ca         1 QDG      -0.154000
     26 N26         -0.9330    -1.8300    -0.5130 nh         1 QDG      -0.636000
     27 C27         -1.7630    -1.5540    -1.6680 c6         1 QDG       0.186300
     28 C28         -3.2300    -1.6850    -1.3100 c6         1 QDG       0.185800
     29 N29         -3.5540    -0.7900    -0.2070 nh         1 QDG      -0.643000
     30 C30         -4.9150    -0.5440     0.0020 ca         1 QDG       0.152600
     31 C31         -5.6070     0.3680    -0.8040 ca         1 QDG      -0.019900
     32 BR32        -4.6930     1.3220    -2.1490 br         1 QDG      -0.080100
     33 C33         -6.9540     0.6330    -0.6180 ca         1 QDG      -0.107000
     34 C34         -5.6380    -1.1540     1.0300 ca         1 QDG      -0.159000
     35 C35         -6.9730    -0.8710     1.2580 ca         1 QDG      -0.086000
     36 C36         -7.6330     0.0210     0.4270 ca         1 QDG       0.048600
     37 N37         -8.9870     0.3410     0.6440 n          1 QDG      -0.314500
     38 C38        -10.0180    -0.5740     0.8210 c          1 QDG       0.776500
     39 N39        -11.1070     0.2260     0.9590 n          1 QDG      -0.229800
     40 C40        -12.4750    -0.2020     1.1930 c3         1 QDG       0.153700
     41 C41        -12.9290     0.2050     2.5880 c3         1 QDG      -0.107100
     42 C42        -13.4030     0.3280     0.1040 c3         1 QDG      -0.086400
     43 C43        -12.9930    -0.0820    -1.3030 c3         1 QDG      -0.088100
     44 N44        -10.8040     1.5460     0.8780 n2         1 QDG      -0.478300
     45 C45         -9.5360     1.5910     0.6850 cc         1 QDG       0.360800
     46 O46         -9.9400    -1.7890     0.8390 o          1 QDG      -0.629500
     47 C47         -2.7570    -1.1220     0.9580 c6         1 QDG       0.185800
     48 C48         -1.2880    -0.9770     0.6140 c6         1 QDG       0.186300
     49 C49          7.5220    -0.7870    -2.7990 c5         1 QDG       0.101400
     50 O50          8.1260     0.2610    -2.0600 os         1 QDG      -0.399600
     51 H1           6.6600     2.5660    -1.2240 h1         1 QDG       0.081200
     52 H2           5.9550     1.4010    -2.3040 h1         1 QDG       0.081200
     53 H3           2.0670     0.6310    -0.1940 h5         1 QDG       0.067100
     54 H4           5.6460     1.8200     1.5400 h5         1 QDG       0.065100
     55 H5           7.1480    -2.5050    -1.5020 h1         1 QDG       0.091700
     56 H6           4.7890    -0.8350    -2.4870 h1         1 QDG       0.050700
     57 H7           5.2870    -2.4030    -3.1430 h1         1 QDG       0.050700
     58 H8           7.5170     2.8540     0.5210 ha         1 QDG       0.136000
     59 H9           8.9980     3.4350     2.3340 ha         1 QDG       0.156000
     60 H10         10.8670    -0.4090     2.0300 ha         1 QDG       0.166000
     61 H11          3.2470    -2.9430     0.9310 ha         1 QDG       0.140500
     62 H12          0.8460    -2.7130     1.2460 ha         1 QDG       0.134500
     63 H13          0.4690    -1.3380    -2.8040 ha         1 QDG       0.134500
     64 H14          2.8280    -1.6410    -3.1340 ha         1 QDG       0.140500
     65 H15         -1.5870    -0.5450    -2.0750 h1         1 QDG       0.047700
     66 H16         -1.5370    -2.2740    -2.4570 h1         1 QDG       0.047700
     67 H17         -3.8280    -1.4430    -2.1880 h1         1 QDG       0.047700
     68 H18         -3.4510    -2.7290    -1.0390 h1         1 QDG       0.047700
     69 H19         -7.4720     1.3260    -1.2670 ha         1 QDG       0.154000
     70 H20         -5.1410    -1.8640     1.6780 ha         1 QDG       0.143000
     71 H21         -7.4890    -1.3420     2.0830 ha         1 QDG       0.158000
     72 H22        -12.4490    -1.2920     1.1290 h1         1 QDG       0.076700
     73 H23        -13.9360    -0.1670     2.7760 hc         1 QDG       0.046700
     74 H24        -12.2700    -0.2080     3.3530 hc         1 QDG       0.046700
     75 H25        -12.9460     1.2900     2.6950 hc         1 QDG       0.046700
     76 H26        -14.4050    -0.0500     0.3210 hc         1 QDG       0.051200
     77 H27        -13.4640     1.4170     0.1790 hc         1 QDG       0.051200
     78 H28        -12.0320     0.3480    -1.5860 hc         1 QDG       0.036367
     79 H29        -12.9150    -1.1670    -1.3940 hc         1 QDG       0.036367
     80 H30        -13.7280     0.2590    -2.0330 hc         1 QDG       0.036367
     81 H31         -8.9580     2.4960     0.5820 h5         1 QDG       0.075800
     82 H32         -2.9980    -0.4350     1.7710 h1         1 QDG       0.047700
     83 H33         -2.9410    -2.1470     1.3150 h1         1 QDG       0.047700
     84 H34         -0.7040    -1.2540     1.4900 h1         1 QDG       0.047700
     85 H35         -1.0700     0.0800     0.3930 h1         1 QDG       0.047700
     86 H36          8.3090    -1.4010    -3.2360 h1         1 QDG       0.064700
     87 H37          6.9040    -0.3910    -3.6140 h1         1 QDG       0.064700
@<TRIPOS>BOND
     1     1    15 1   
     2     1    16 1   
     3     1    51 1   
     4     1    52 1   
     5     2    17 2   
     6     2    18 1   
     7     2    53 1   
     8     3    16 1   
     9     3    18 2   
    10     3    54 1   
    11     4     5 1   
    12     4    19 1   
    13     4    49 1   
    14     4    55 1   
    15     5    20 1   
    16     5    56 1   
    17     5    57 1   
    18     6    20 1   
    19     6    21 ar  
    20     6    25 ar  
    21     7     8 1   
    22     8     9 ar  
    23     8    14 ar  
    24     9    10 ar  
    25     9    15 1   
    26    10    11 ar  
    27    10    58 1   
    28    11    12 ar  
    29    11    59 1   
    30    12    13 1   
    31    12    14 ar  
    32    14    60 1   
    33    15    19 1   
    34    15    50 1   
    35    16    17 1   
    36    21    22 ar  
    37    21    61 1   
    38    22    23 ar  
    39    22    62 1   
    40    23    24 ar  
    41    23    26 1   
    42    24    25 ar  
    43    24    63 1   
    44    25    64 1   
    45    26    27 1   
    46    26    48 1   
    47    27    28 1   
    48    27    65 1   
    49    27    66 1   
    50    28    29 1   
    51    28    67 1   
    52    28    68 1   
    53    29    30 1   
    54    29    47 1   
    55    30    31 ar  
    56    30    34 ar  
    57    31    32 1   
    58    31    33 ar  
    59    33    36 ar  
    60    33    69 1   
    61    34    35 ar  
    62    34    70 1   
    63    35    36 ar  
    64    35    71 1   
    65    36    37 1   
    66    37    38 1   
    67    37    45 1   
    68    38    39 1   
    69    38    46 2   
    70    39    40 1   
    71    39    44 1   
    72    40    41 1   
    73    40    42 1   
    74    40    72 1   
    75    41    73 1   
    76    41    74 1   
    77    41    75 1   
    78    42    43 1   
    79    42    76 1   
    80    42    77 1   
    81    43    78 1   
    82    43    79 1   
    83    43    80 1   
    84    44    45 2   
    85    45    81 1   
    86    47    48 1   
    87    47    82 1   
    88    47    83 1   
    89    48    84 1   
    90    48    85 1   
    91    49    50 1   
    92    49    86 1   
    93    49    87 1   
@<TRIPOS>SUBSTRUCTURE
     1 QDG         1 TEMP              0 ****  ****    0 ROOT
