@<TRIPOS>MOLECULE
QDG
   87    93     1     0     0
SMALL
No Charge or Current Charge


@<TRIPOS>ATOM
      1 C10          6.7830     1.2130    -1.1970 c3         1 QDG       0.043600
      2 C13          3.7550     1.8380     0.4530 cc         1 QDG       0.532900
      3 C15          5.4210     0.6440     0.9330 cd         1 QDG       0.427400
      4 C17          6.8600    -1.7370    -2.0010 c5         1 QDG       0.135300
      5 C18          5.3450    -1.5890    -2.3260 c3         1 QDG       0.145600
      6 C20          3.2210    -1.6640    -1.0670 ca         1 QDG       0.117100
      7 Cl01        10.0880    -2.1010    -0.2810 cl         1 QDG      -0.177000
      8 C02          9.8370    -0.5880     0.6000 ca         1 QDG       0.173000
      9 C03          8.8170     0.3500     0.2630 ca         1 QDG      -0.076300
     10 C04          8.7240     1.5260     1.0570 ca         1 QDG      -0.088000
     11 C05          9.6020     1.7540     2.1300 ca         1 QDG      -0.108000
     12 C06         10.5930     0.8180     2.4390 ca         1 QDG       0.139000
     13 Cl07        11.6910     1.1050     3.7830 cl         1 QDG      -0.181000
     14 C08         10.7090    -0.3480     1.6760 ca         1 QDG      -0.107000
     15 C09          7.8460     0.0920    -0.9190 c5         1 QDG       0.431300
     16 N11          5.6160     1.2880    -0.2870 na         1 QDG      -0.055700
     17 N12          4.5290     2.0620    -0.5950 nd         1 QDG      -0.558800
     18 N14          4.2450     1.0050     1.4140 nc         1 QDG      -0.700000
     19 O16          7.1960    -1.1770    -0.7030 os         1 QDG      -0.435000
     20 O19          4.5820    -1.8720    -1.1370 os         1 QDG      -0.335100
     21 C21          2.5840    -1.8950     0.1610 ca         1 QDG      -0.136000
     22 C22          1.2010    -1.6820     0.2970 ca         1 QDG      -0.119500
     23 C23          0.4300    -1.2350    -0.7940 ca         1 QDG       0.239000
     24 C24          1.0740    -1.0100    -2.0290 ca         1 QDG      -0.119500
     25 C25          2.4590    -1.2210    -2.1700 ca         1 QDG      -0.136000
     26 N26         -0.9610    -1.0230    -0.6340 nh         1 QDG      -0.774400
     27 C27         -1.9020    -1.1050    -1.8000 c6         1 QDG       0.186300
     28 C28         -3.3790    -1.3930    -1.3720 c6         1 QDG       0.185800
     29 N29         -3.8640    -0.4510    -0.3170 nh         1 QDG      -0.781400
     30 C30         -5.2540    -0.2520    -0.1470 ca         1 QDG       0.291000
     31 C31         -5.9860     0.5780    -1.0250 ca         1 QDG      -0.019900
     32 Br32        -5.1220     1.5100    -2.4690 br         1 QDG      -0.080100
     33 C33         -7.3680     0.7640    -0.8460 ca         1 QDG      -0.089000
     34 C34         -5.9340    -0.8730     0.9150 ca         1 QDG      -0.141000
     35 C35         -7.3170    -0.6880     1.0910 ca         1 QDG      -0.068000
     36 C36         -8.0640     0.0990     0.1880 ca         1 QDG       0.048600
     37 N37         -9.4640     0.3700     0.4230 n          1 QDG      -0.247500
     38 C38        -10.3810    -0.4240     1.0720 c          1 QDG       0.567000
     39 N39        -11.5750     0.2920     0.9600 n          1 QDG      -0.162800
     40 C40        -12.8640    -0.2460     1.4570 c3         1 QDG       0.153700
     41 C41        -13.6300     0.8050     2.2920 c3         1 QDG      -0.107100
     42 C42        -13.7470    -0.8010     0.3100 c3         1 QDG      -0.086400
     43 C43        -13.0940    -1.9450    -0.4960 c3         1 QDG      -0.088100
     44 N44        -11.4250     1.4790     0.2500 n2         1 QDG      -0.478300
     45 C45        -10.1500     1.4730    -0.0550 cc         1 QDG       0.360800
     46 O46        -10.2100    -1.5170     1.5960 o          1 QDG      -0.554000
     47 C47         -2.9400    -0.3980     0.8580 c6         1 QDG       0.185800
     48 C48         -1.4600    -0.1050     0.4420 c6         1 QDG       0.186300
     49 C49          7.8190    -0.9900    -2.9800 c5         1 QDG       0.124600
     50 O50          8.6150    -0.1400    -2.1160 os         1 QDG      -0.446000
     51 H1           7.2920     2.1830    -1.1860 h1         1 QDG       0.081200
     52 H2           6.3980     1.1090    -2.2150 h1         1 QDG       0.081200
     53 H3           2.7750     2.2830     0.5890 h5         1 QDG       0.067100
     54 H4           6.1470    -0.0200     1.3870 h5         1 QDG       0.065100
     55 H5           7.0930    -2.8100    -1.9750 h1         1 QDG       0.091700
     56 H6           5.1440    -0.5680    -2.6720 h1         1 QDG       0.050700
     57 H7           5.0780    -2.2790    -3.1370 h1         1 QDG       0.050700
     58 H8           7.9730     2.2870     0.8650 ha         1 QDG       0.118000
     59 H9           9.5120     2.6600     2.7250 ha         1 QDG       0.138000
     60 H10         11.4790    -1.0740     1.9180 ha         1 QDG       0.148000
     61 H11          3.1660    -2.2360     1.0130 ha         1 QDG       0.122500
     62 H12          0.7240    -1.8740     1.2540 ha         1 QDG       0.116500
     63 H13          0.5090    -0.6570    -2.8860 ha         1 QDG       0.116500
     64 H14          2.9180    -1.0340    -3.1360 ha         1 QDG       0.122500
     65 H15         -1.8800    -0.1580    -2.3590 h1         1 QDG       0.047700
     66 H16         -1.5850    -1.9000    -2.4900 h1         1 QDG       0.047700
     67 H17         -4.0190    -1.3340    -2.2640 h1         1 QDG       0.047700
     68 H18         -3.4400    -2.4260    -0.9990 h1         1 QDG       0.047700
     69 H19         -7.8940     1.4100    -1.5420 ha         1 QDG       0.136000
     70 H20         -5.3900    -1.5030     1.6120 ha         1 QDG       0.125000
     71 H21         -7.7940    -1.1600     1.9450 ha         1 QDG       0.140000
     72 H22        -12.6440    -1.0830     2.1330 h1         1 QDG       0.076700
     73 H23        -14.5380     0.3680     2.7250 hc         1 QDG       0.046700
     74 H24        -13.0040     1.1700     3.1150 hc         1 QDG       0.046700
     75 H25        -13.9220     1.6620     1.6740 hc         1 QDG       0.046700
     76 H26        -14.6900    -1.1700     0.7320 hc         1 QDG       0.051200
     77 H27        -14.0080     0.0140    -0.3760 hc         1 QDG       0.051200
     78 H28        -12.1960    -1.5960    -1.0190 hc         1 QDG       0.036367
     79 H29        -12.8110    -2.7740     0.1650 hc         1 QDG       0.036367
     80 H30        -13.7940    -2.3300    -1.2470 hc         1 QDG       0.036367
     81 H31         -9.6520     2.2630    -0.6030 h5         1 QDG       0.075800
     82 H32         -3.2640     0.3820     1.5620 h1         1 QDG       0.047700
     83 H33         -2.9660    -1.3570     1.3960 h1         1 QDG       0.047700
     84 H34         -0.8310    -0.1750     1.3400 h1         1 QDG       0.047700
     85 H35         -1.3980     0.9350     0.0900 h1         1 QDG       0.047700
     86 H36          8.4780    -1.6770    -3.5280 h1         1 QDG       0.064700
     87 H37          7.2770    -0.3710    -3.7080 h1         1 QDG       0.064700
@<TRIPOS>BOND
     1     1    15 1   
     2     1    16 1   
     3     1    51 1   
     4     1    52 1   
     5     2    17 2   
     6     2    18 1   
     7     2    53 1   
     8     3    16 1   
     9     3    18 2   
    10     3    54 1   
    11     4     5 1   
    12     4    19 1   
    13     4    49 1   
    14     4    55 1   
    15     5    20 1   
    16     5    56 1   
    17     5    57 1   
    18     6    20 1   
    19     6    21 ar  
    20     6    25 ar  
    21     7     8 1   
    22     8     9 ar  
    23     8    14 ar  
    24     9    10 ar  
    25     9    15 1   
    26    10    11 ar  
    27    10    58 1   
    28    11    12 ar  
    29    11    59 1   
    30    12    13 1   
    31    12    14 ar  
    32    14    60 1   
    33    15    19 1   
    34    15    50 1   
    35    16    17 1   
    36    21    22 ar  
    37    21    61 1   
    38    22    23 ar  
    39    22    62 1   
    40    23    24 ar  
    41    23    26 1   
    42    24    25 ar  
    43    24    63 1   
    44    25    64 1   
    45    26    27 1   
    46    26    48 1   
    47    27    28 1   
    48    27    65 1   
    49    27    66 1   
    50    28    29 1   
    51    28    67 1   
    52    28    68 1   
    53    29    30 1   
    54    29    47 1   
    55    30    31 ar  
    56    30    34 ar  
    57    31    32 1   
    58    31    33 ar  
    59    33    36 ar  
    60    33    69 1   
    61    34    35 ar  
    62    34    70 1   
    63    35    36 ar  
    64    35    71 1   
    65    36    37 1   
    66    37    38 1   
    67    37    45 1   
    68    38    39 1   
    69    38    46 2   
    70    39    40 1   
    71    39    44 1   
    72    40    41 1   
    73    40    42 1   
    74    40    72 1   
    75    41    73 1   
    76    41    74 1   
    77    41    75 1   
    78    42    43 1   
    79    42    76 1   
    80    42    77 1   
    81    43    78 1   
    82    43    79 1   
    83    43    80 1   
    84    44    45 2   
    85    45    81 1   
    86    47    48 1   
    87    47    82 1   
    88    47    83 1   
    89    48    84 1   
    90    48    85 1   
    91    49    50 1   
    92    49    86 1   
    93    49    87 1   
@<TRIPOS>SUBSTRUCTURE
     1 QDG         1 TEMP              0 ****  ****    0 ROOT
