@<TRIPOS>MOLECULE
QDI
   19    20     1     0     0
SMALL
No Charge or Current Charge


@<TRIPOS>ATOM
      1 C02          3.5030     6.2900   -44.7800 ca         1 QDI       0.364000
      2 C03          4.3040     6.5190   -43.6660 ca         1 QDI      -0.271000
      3 C04          3.8000     6.2280   -42.3970 ca         1 QDI       0.391900
      4 C06          1.7700     5.5030   -43.2720 ca         1 QDI       0.285000
      5 C07          0.4750     4.9850   -43.0690 ca         1 QDI      -0.067000
      6 C08         -0.3850     4.7350   -44.1520 ca         1 QDI      -0.127000
      7 C09          0.0460     5.0050   -45.4570 ca         1 QDI       0.152000
      8 C11          1.3290     5.5200   -45.6860 ca         1 QDI      -0.129000
      9 C12          2.2020     5.7720   -44.5970 ca         1 QDI      -0.108000
     10 F10         -0.7800     4.7670   -46.4990 f          1 QDI      -0.184000
     11 N01          4.0240     6.5790   -46.0150 nv         1 QDI      -1.096000
     12 N05          2.5620     5.7300   -42.1990 nb         1 QDI      -0.693000
     13 H031         5.3080     6.9180   -43.7660 ha         1 QDI       0.121000
     14 H041         4.4040     6.3970   -41.5060 h4         1 QDI       0.017100
     15 H071         0.1370     4.7760   -42.0570 ha         1 QDI       0.136000
     16 H081        -1.3820     4.3350   -43.9800 ha         1 QDI       0.135000
     17 H111         1.6290     5.7210   -46.7100 ha         1 QDI       0.124000
     18 H011         5.0180     6.7860   -46.0960 hn         1 QDI       0.474500
     19 H012         3.5590     6.2330   -46.8500 hn         1 QDI       0.474500
@<TRIPOS>BOND
     1     1     2 ar  
     2     1     9 ar  
     3     1    11 1   
     4     2     3 ar  
     5     2    13 1   
     6     3    12 ar  
     7     3    14 1   
     8     4     5 ar  
     9     4     9 ar  
    10     4    12 ar  
    11     5     6 ar  
    12     5    15 1   
    13     6     7 ar  
    14     6    16 1   
    15     7     8 ar  
    16     7    10 1   
    17     8     9 ar  
    18     8    17 1   
    19    11    18 1   
    20    11    19 1   
@<TRIPOS>SUBSTRUCTURE
     1 QDI         1 TEMP              0 ****  ****    0 ROOT
