@<TRIPOS>MOLECULE
QDI
   19    20     1     0     0
SMALL
abcg2


@<TRIPOS>ATOM
      1 C02          3.5310     6.2950   -44.7960 ca         1 QDI       0.364000
      2 C03          4.2910     6.5110   -43.6550 ca         1 QDI      -0.271000
      3 C04          3.7590     6.2170   -42.3960 ca         1 QDI       0.391900
      4 C06          1.7750     5.5060   -43.2800 ca         1 QDI       0.285000
      5 C07          0.4740     4.9830   -43.0810 ca         1 QDI      -0.067000
      6 C08         -0.3670     4.7380   -44.1360 ca         1 QDI      -0.127000
      7 C09          0.0860     5.0200   -45.4300 ca         1 QDI       0.152000
      8 C11          1.3270     5.5250   -45.6890 ca         1 QDI      -0.129000
      9 C12          2.2070     5.7750   -44.6120 ca         1 QDI      -0.108000
     10 F10         -0.7560     4.7780   -46.4670 f          1 QDI      -0.184000
     11 N01          4.0030     6.6060   -46.0350 nv         1 QDI      -1.096000
     12 N05          2.5520     5.7290   -42.1810 nb         1 QDI      -0.693000
     13 H031         5.2980     6.8990   -43.7380 ha         1 QDI       0.121000
     14 H041         4.3740     6.3910   -41.5180 h4         1 QDI       0.017100
     15 H071         0.1590     4.7810   -42.0650 ha         1 QDI       0.136000
     16 H081        -1.3620     4.3390   -43.9900 ha         1 QDI       0.135000
     17 H111         1.6020     5.7300   -46.7150 ha         1 QDI       0.124000
     18 H011         4.9890     6.7930   -46.1250 hn         1 QDI       0.474500
     19 H012         3.5830     6.1850   -46.8470 hn         1 QDI       0.474500
@<TRIPOS>BOND
     1     1     2 ar  
     2     1     9 ar  
     3     1    11 1   
     4     2     3 ar  
     5     2    13 1   
     6     3    12 ar  
     7     3    14 1   
     8     4     5 ar  
     9     4     9 ar  
    10     4    12 ar  
    11     5     6 ar  
    12     5    15 1   
    13     6     7 ar  
    14     6    16 1   
    15     7     8 ar  
    16     7    10 1   
    17     8     9 ar  
    18     8    17 1   
    19    11    18 1   
    20    11    19 1   
@<TRIPOS>SUBSTRUCTURE
     1 QDI         1 TEMP              0 ****  ****    0 ROOT
