@<TRIPOS>MOLECULE
QDJ
   83    87     1     0     0
SMALL
bcc


@<TRIPOS>ATOM
      1 C01         -0.1620     3.2850    -3.2250 c3         1 QDJ      -0.108100
      2 C02         -1.5320     3.3420    -2.5590 c3         1 QDJ       0.198800
      3 C03         -1.7250     4.6200    -1.7490 c3         1 QDJ      -0.108100
      4 C04         -2.6230     3.2410    -3.6180 c3         1 QDJ      -0.108100
      5 C06         -0.9930     1.8850    -0.6810 c          1 QDJ       0.776100
      6 C09         -0.7810     0.1470     1.0590 c3         1 QDJ       0.160700
      7 C10          0.6970    -0.1880     0.8640 c3         1 QDJ      -0.025300
      8 C12          2.6560    -1.5420    -0.5880 c3         1 QDJ      -0.061600
      9 C13          3.0290    -2.4430    -1.7700 c3         1 QDJ      -0.010100
     10 C14          2.1550    -3.6630    -1.8940 ca         1 QDJ      -0.065300
     11 C15          1.0660    -3.7280    -2.8110 ca         1 QDJ      -0.015000
     12 C16          0.7180    -2.6610    -3.6770 ca         1 QDJ      -0.111000
     13 C17         -0.3340    -2.7650    -4.5450 ca         1 QDJ      -0.126000
     14 C18         -1.1040    -3.9440    -4.6000 ca         1 QDJ      -0.124000
     15 C19         -0.7980    -4.9940    -3.7800 ca         1 QDJ      -0.121000
     16 C20          0.2840    -4.9170    -2.8710 ca         1 QDJ      -0.037000
     17 C21          0.5940    -6.0030    -2.0210 ca         1 QDJ      -0.113000
     18 C22          1.6420    -5.9180    -1.1490 ca         1 QDJ      -0.127000
     19 C23          2.4200    -4.7470    -1.0950 ca         1 QDJ      -0.128000
     20 C24          3.5670    -0.3230    -0.5540 c          1 QDJ       0.667100
     21 C27          4.8680     1.1480     0.9330 c3         1 QDJ       0.152300
     22 C28          4.1100     2.2550     1.6190 ca         1 QDJ      -0.242600
     23 C29          4.5380     2.7590     2.8410 ca         1 QDJ       0.401200
     24 C31          2.8170     4.2380     2.9690 ca         1 QDJ       0.396200
     25 C32          2.2940     3.8080     1.7580 ca         1 QDJ      -0.239300
     26 C33          2.9560     2.8050     1.0700 ca         1 QDJ      -0.070000
     27 C34         -0.9510     1.0100     2.3220 c3         1 QDJ      -0.054100
     28 C35         -2.3810     1.3780     2.5890 ca         1 QDJ      -0.069300
     29 C36         -3.2870     0.4600     3.1960 ca         1 QDJ      -0.028000
     30 C37         -2.8940    -0.8330     3.6230 ca         1 QDJ      -0.125000
     31 C38         -3.7870    -1.6900     4.2070 ca         1 QDJ      -0.124000
     32 C39         -5.1280    -1.3030     4.3990 ca         1 QDJ      -0.127000
     33 C40         -5.5420    -0.0620     4.0010 ca         1 QDJ      -0.114000
     34 C41         -4.6420     0.8460     3.3940 ca         1 QDJ      -0.038000
     35 C42         -5.0690     2.1300     2.9820 ca         1 QDJ      -0.116000
     36 C43         -4.1850     2.9960     2.4030 ca         1 QDJ      -0.125000
     37 C44         -2.8420     2.6140     2.2110 ca         1 QDJ      -0.116000
     38 N08         -1.3910     0.7250    -0.1180 ns         1 QDJ      -0.566900
     39 N26          4.0430    -0.0070     0.6630 ns         1 QDJ      -0.574900
     40 N30          3.9190     3.7280     3.5050 nb         1 QDJ      -0.670000
     41 O05         -1.7550     2.1660    -1.7400 os         1 QDJ      -0.449900
     42 O07         -0.0750     2.5660    -0.2750 o          1 QDJ      -0.616000
     43 O25          3.8240     0.3120    -1.5640 o          1 QDJ      -0.581100
     44 S11          0.9310    -0.9760    -0.7540 ss         1 QDJ      -0.268200
     45 H1          -0.0790     4.0960    -3.9510 hc         1 QDJ       0.049033
     46 H2           0.6530     3.3860    -2.5120 hc         1 QDJ       0.049033
     47 H3          -0.0360     2.3450    -3.7670 hc         1 QDJ       0.049033
     48 H4          -1.7140     5.4780    -2.4230 hc         1 QDJ       0.049033
     49 H5          -2.6920     4.6140    -1.2430 hc         1 QDJ       0.049033
     50 H6          -0.9450     4.7660    -1.0060 hc         1 QDJ       0.049033
     51 H7          -2.5220     2.3310    -4.2110 hc         1 QDJ       0.049033
     52 H8          -3.6170     3.2520    -3.1680 hc         1 QDJ       0.049033
     53 H9          -2.5540     4.0920    -4.2950 hc         1 QDJ       0.049033
     54 H10         -1.3120    -0.7950     1.2080 h1         1 QDJ       0.064700
     55 H11          1.3100     0.7070     0.9370 h1         1 QDJ       0.070200
     56 H12          2.7370    -2.1230     0.3350 h1         1 QDJ       0.067700
     57 H13          3.0390    -1.8580    -2.6880 hc         1 QDJ       0.069700
     58 H14          4.0590    -2.7700    -1.6090 hc         1 QDJ       0.069700
     59 H15          1.2830    -1.7390    -3.6570 ha         1 QDJ       0.142000
     60 H16         -0.5790    -1.9350    -5.1950 ha         1 QDJ       0.131000
     61 H17         -1.9350    -4.0130    -5.2900 ha         1 QDJ       0.130000
     62 H18         -1.3850    -5.9050    -3.8140 ha         1 QDJ       0.129000
     63 H19         -0.0090    -6.9020    -2.0750 ha         1 QDJ       0.131000
     64 H20          1.8840    -6.7510    -0.5010 ha         1 QDJ       0.130000
     65 H21          3.2560    -4.7030    -0.4060 ha         1 QDJ       0.123000
     66 H22          5.2800     1.5010    -0.0120 h1         1 QDJ       0.066700
     67 H23          5.7130     0.8410     1.5520 h1         1 QDJ       0.066700
     68 H24          5.4310     2.3520     3.3070 h4         1 QDJ       0.012100
     69 H25          2.3220     5.0240     3.5300 h4         1 QDJ       0.017100
     70 H26          1.3860     4.2420     1.3650 ha         1 QDJ       0.157000
     71 H27          2.5670     2.4600     0.1200 ha         1 QDJ       0.164000
     72 H28         -0.5190     0.4630     3.1630 hc         1 QDJ       0.064200
     73 H29         -0.3560     1.9180     2.2160 hc         1 QDJ       0.064200
     74 H30         -1.8690    -1.1560     3.4950 ha         1 QDJ       0.126000
     75 H31         -3.4610    -2.6710     4.5280 ha         1 QDJ       0.130000
     76 H32         -5.8250    -1.9880     4.8620 ha         1 QDJ       0.132000
     77 H33         -6.5710     0.2440     4.1480 ha         1 QDJ       0.131000
     78 H34         -6.1030     2.4150     3.1330 ha         1 QDJ       0.132000
     79 H35         -4.5080     3.9790     2.0860 ha         1 QDJ       0.132000
     80 H36         -2.1570     3.3170     1.7530 ha         1 QDJ       0.138000
     81 H37         -2.2000     0.2620    -0.4960 hn         1 QDJ       0.336500
     82 H38          3.7720    -0.5720     1.4530 hn         1 QDJ       0.310500
     83 H39          1.0060    -0.8790     1.6510 h1         1 QDJ       0.070200
@<TRIPOS>BOND
     1     1     2 1   
     2     1    45 1   
     3     1    46 1   
     4     1    47 1   
     5     2     3 1   
     6     2     4 1   
     7     2    41 1   
     8     3    48 1   
     9     3    49 1   
    10     3    50 1   
    11     4    51 1   
    12     4    52 1   
    13     4    53 1   
    14     5    38 1   
    15     5    41 1   
    16     5    42 2   
    17     6     7 1   
    18     6    27 1   
    19     6    38 1   
    20     6    54 1   
    21     7    44 1   
    22     7    55 1   
    23     7    83 1   
    24     8     9 1   
    25     8    20 1   
    26     8    44 1   
    27     8    56 1   
    28     9    10 1   
    29     9    57 1   
    30     9    58 1   
    31    10    11 ar  
    32    10    19 ar  
    33    11    12 ar  
    34    11    16 ar  
    35    12    13 ar  
    36    12    59 1   
    37    13    14 ar  
    38    13    60 1   
    39    14    15 ar  
    40    14    61 1   
    41    15    16 ar  
    42    15    62 1   
    43    16    17 ar  
    44    17    18 ar  
    45    17    63 1   
    46    18    19 ar  
    47    18    64 1   
    48    19    65 1   
    49    20    39 1   
    50    20    43 2   
    51    21    22 1   
    52    21    39 1   
    53    21    66 1   
    54    21    67 1   
    55    22    23 ar  
    56    22    26 ar  
    57    23    40 ar  
    58    23    68 1   
    59    24    25 ar  
    60    24    40 ar  
    61    24    69 1   
    62    25    26 ar  
    63    25    70 1   
    64    26    71 1   
    65    27    28 1   
    66    27    72 1   
    67    27    73 1   
    68    28    29 ar  
    69    28    37 ar  
    70    29    30 ar  
    71    29    34 ar  
    72    30    31 ar  
    73    30    74 1   
    74    31    32 ar  
    75    31    75 1   
    76    32    33 ar  
    77    32    76 1   
    78    33    34 ar  
    79    33    77 1   
    80    34    35 ar  
    81    35    36 ar  
    82    35    78 1   
    83    36    37 ar  
    84    36    79 1   
    85    37    80 1   
    86    38    81 1   
    87    39    82 1   
@<TRIPOS>SUBSTRUCTURE
     1 QDJ         1 TEMP              0 ****  ****    0 ROOT
