@<TRIPOS>MOLECULE
QDJ
   83    87     1     0     0
SMALL
No Charge or Current Charge


@<TRIPOS>ATOM
      1 C01         -0.4510     3.7060    -3.2010 c3         1 QDJ      -0.108100
      2 C02         -1.8000     3.6510    -2.4380 c3         1 QDJ       0.222000
      3 C03         -2.0130     4.8590    -1.4880 c3         1 QDJ      -0.108100
      4 C04         -2.9700     3.5590    -3.4430 c3         1 QDJ      -0.108100
      5 C06         -1.0120     2.1240    -0.6700 c          1 QDJ       0.660100
      6 C09         -0.7610     0.2500     1.0070 c3         1 QDJ       0.160700
      7 C10          0.6990    -0.1650     0.7030 c3         1 QDJ       0.022600
      8 C12          2.6510    -1.5750    -0.8450 c3         1 QDJ      -0.013700
      9 C13          3.0510    -2.3980    -2.0950 c3         1 QDJ      -0.010100
     10 C14          2.4230    -3.7980    -2.1230 ca         1 QDJ      -0.065300
     11 C15          1.2610    -4.1350    -2.8770 ca         1 QDJ      -0.015000
     12 C16          0.5590    -3.1840    -3.6590 ca         1 QDJ      -0.093000
     13 C17         -0.5830    -3.5550    -4.3900 ca         1 QDJ      -0.108000
     14 C18         -1.0450    -4.8770    -4.3550 ca         1 QDJ      -0.106000
     15 C19         -0.3680    -5.8320    -3.5830 ca         1 QDJ      -0.103000
     16 C20          0.7760    -5.4690    -2.8460 ca         1 QDJ      -0.037000
     17 C21          1.4300    -6.4470    -2.0760 ca         1 QDJ      -0.095000
     18 C22          2.5670    -6.1110    -1.3310 ca         1 QDJ      -0.109000
     19 C23          3.0580    -4.7980    -1.3570 ca         1 QDJ      -0.110000
     20 C24          3.4910    -0.2810    -0.7240 c          1 QDJ       0.600100
     21 C27          4.8660     1.0780     0.8880 c3         1 QDJ       0.152300
     22 C28          3.9840     1.9860     1.7260 ca         1 QDJ      -0.177300
     23 C29          4.0670     1.9650     3.1320 ca         1 QDJ       0.335900
     24 C31          2.4070     3.5690     3.3390 ca         1 QDJ       0.330900
     25 C32          2.2580     3.6570     1.9460 ca         1 QDJ      -0.156000
     26 C33          3.0580     2.8530     1.1180 ca         1 QDJ      -0.052000
     27 C34         -0.8610     1.0780     2.3160 c3         1 QDJ      -0.054100
     28 C35         -2.2740     1.6010     2.6010 ca         1 QDJ      -0.069300
     29 C36         -3.3100     0.7770     3.1230 ca         1 QDJ      -0.028000
     30 C37         -3.0980    -0.5870     3.4360 ca         1 QDJ      -0.107000
     31 C38         -4.1430    -1.3760     3.9460 ca         1 QDJ      -0.106000
     32 C39         -5.4130    -0.8170     4.1540 ca         1 QDJ      -0.109000
     33 C40         -5.6390     0.5340     3.8510 ca         1 QDJ      -0.096000
     34 C41         -4.5970     1.3310     3.3390 ca         1 QDJ      -0.038000
     35 C42         -4.8480     2.6830     3.0450 ca         1 QDJ      -0.098000
     36 C43         -3.8240     3.4930     2.5350 ca         1 QDJ      -0.107000
     37 C44         -2.5480     2.9560     2.3170 ca         1 QDJ      -0.098000
     38 N08         -1.3960     0.9310    -0.1300 ns         1 QDJ      -0.499900
     39 N26          4.1310    -0.1210     0.4880 ns         1 QDJ      -0.507900
     40 N30          3.2970     2.7390     3.9320 nb         1 QDJ      -0.670000
     41 O05         -1.8830     2.4210    -1.6810 os         1 QDJ      -0.473100
     42 O07         -0.0650     2.7940    -0.2940 o          1 QDJ      -0.567000
     43 O25          3.5800     0.5460    -1.6210 o          1 QDJ      -0.581100
     44 S11          0.8220    -1.2100    -0.8260 ss         1 QDJ      -0.364000
     45 H1          -0.4700     4.5040    -3.9520 hc         1 QDJ       0.049033
     46 H2           0.3910     3.9120    -2.5320 hc         1 QDJ       0.049033
     47 H3          -0.2580     2.7590    -3.7190 hc         1 QDJ       0.049033
     48 H4          -2.1850     5.7740    -2.0670 hc         1 QDJ       0.049033
     49 H5          -2.8850     4.6980    -0.8430 hc         1 QDJ       0.049033
     50 H6          -1.1410     5.0380    -0.8510 hc         1 QDJ       0.049033
     51 H7          -2.8580     2.6830    -4.0930 hc         1 QDJ       0.049033
     52 H8          -3.9290     3.4740    -2.9180 hc         1 QDJ       0.049033
     53 H9          -3.0090     4.4510    -4.0790 hc         1 QDJ       0.049033
     54 H10         -1.3290    -0.6770     1.1610 h1         1 QDJ       0.064700
     55 H11          1.3120     0.7350     0.5750 h1         1 QDJ       0.070200
     56 H12          2.8680    -2.1870     0.0400 h1         1 QDJ       0.067700
     57 H13          2.8420    -1.8250    -3.0040 hc         1 QDJ       0.069700
     58 H14          4.1430    -2.5060    -2.0910 hc         1 QDJ       0.069700
     59 H15          0.8700    -2.1460    -3.7060 ha         1 QDJ       0.124000
     60 H16         -1.1110    -2.8120    -4.9830 ha         1 QDJ       0.113000
     61 H17         -1.9290    -5.1620    -4.9220 ha         1 QDJ       0.112000
     62 H18         -0.7350    -6.8560    -3.5570 ha         1 QDJ       0.111000
     63 H19          1.0560    -7.4680    -2.0520 ha         1 QDJ       0.113000
     64 H20          3.0710    -6.8690    -0.7350 ha         1 QDJ       0.112000
     65 H21          3.9450    -4.5560    -0.7750 ha         1 QDJ       0.105000
     66 H22          5.2230     1.6160    -0.0000 h1         1 QDJ       0.066700
     67 H23          5.7480     0.7730     1.4670 h1         1 QDJ       0.066700
     68 H24          4.7700     1.3040     3.6380 h4         1 QDJ       0.012100
     69 H25          1.7960     4.1800     4.0020 h4         1 QDJ       0.017100
     70 H26          1.5260     4.3370     1.5190 ha         1 QDJ       0.139000
     71 H27          2.9530     2.8970     0.0350 ha         1 QDJ       0.146000
     72 H28         -0.4950     0.4790     3.1570 hc         1 QDJ       0.064200
     73 H29         -0.1620     1.9200     2.2520 hc         1 QDJ       0.064200
     74 H30         -2.1300    -1.0570     3.2940 ha         1 QDJ       0.108000
     75 H31         -3.9670    -2.4230     4.1820 ha         1 QDJ       0.112000
     76 H32         -6.2200    -1.4300     4.5490 ha         1 QDJ       0.114000
     77 H33         -6.6260     0.9610     4.0160 ha         1 QDJ       0.113000
     78 H34         -5.8350     3.1080     3.2100 ha         1 QDJ       0.114000
     79 H35         -4.0200     4.5390     2.3070 ha         1 QDJ       0.114000
     80 H36         -1.7670     3.5980     1.9160 ha         1 QDJ       0.120000
     81 H37         -2.2020     0.5030    -0.5630 hn         1 QDJ       0.336500
     82 H38          4.0160    -0.8600     1.1700 hn         1 QDJ       0.310500
     83 H39          1.0990    -0.7320     1.5530 h1         1 QDJ       0.070200
@<TRIPOS>BOND
     1     1     2 1   
     2     1    45 1   
     3     1    46 1   
     4     1    47 1   
     5     2     3 1   
     6     2     4 1   
     7     2    41 1   
     8     3    48 1   
     9     3    49 1   
    10     3    50 1   
    11     4    51 1   
    12     4    52 1   
    13     4    53 1   
    14     5    38 1   
    15     5    41 1   
    16     5    42 2   
    17     6     7 1   
    18     6    27 1   
    19     6    38 1   
    20     6    54 1   
    21     7    44 1   
    22     7    55 1   
    23     7    83 1   
    24     8     9 1   
    25     8    20 1   
    26     8    44 1   
    27     8    56 1   
    28     9    10 1   
    29     9    57 1   
    30     9    58 1   
    31    10    11 ar  
    32    10    19 ar  
    33    11    12 ar  
    34    11    16 ar  
    35    12    13 ar  
    36    12    59 1   
    37    13    14 ar  
    38    13    60 1   
    39    14    15 ar  
    40    14    61 1   
    41    15    16 ar  
    42    15    62 1   
    43    16    17 ar  
    44    17    18 ar  
    45    17    63 1   
    46    18    19 ar  
    47    18    64 1   
    48    19    65 1   
    49    20    39 1   
    50    20    43 2   
    51    21    22 1   
    52    21    39 1   
    53    21    66 1   
    54    21    67 1   
    55    22    23 ar  
    56    22    26 ar  
    57    23    40 ar  
    58    23    68 1   
    59    24    25 ar  
    60    24    40 ar  
    61    24    69 1   
    62    25    26 ar  
    63    25    70 1   
    64    26    71 1   
    65    27    28 1   
    66    27    72 1   
    67    27    73 1   
    68    28    29 ar  
    69    28    37 ar  
    70    29    30 ar  
    71    29    34 ar  
    72    30    31 ar  
    73    30    74 1   
    74    31    32 ar  
    75    31    75 1   
    76    32    33 ar  
    77    32    76 1   
    78    33    34 ar  
    79    33    77 1   
    80    34    35 ar  
    81    35    36 ar  
    82    35    78 1   
    83    36    37 ar  
    84    36    79 1   
    85    37    80 1   
    86    38    81 1   
    87    39    82 1   
@<TRIPOS>SUBSTRUCTURE
     1 QDJ         1 TEMP              0 ****  ****    0 ROOT
