@<TRIPOS>MOLECULE
QDK
   20    19     1     0     0
SMALL
No Charge or Current Charge


@<TRIPOS>ATOM
      1 C1          -2.1420    -0.8760    -0.3520 c3         1 QDK       0.070600
      2 O1          -3.5530    -0.6020    -0.5340 oh         1 QDK      -0.624000
      3 C2          -1.3610     0.2960     0.3170 c          1 QDK       0.552100
      4 O2          -1.8580     0.9890     1.2050 o          1 QDK      -0.481100
      5 C3          -0.0010     0.6980    -0.3340 c3         1 QDK       0.036300
      6 O3           0.2970     2.1150    -0.1550 oh         1 QDK      -0.701000
      7 C4           1.1670    -0.1720     0.2150 c3         1 QDK       0.137300
      8 O4           0.8710    -1.5650     0.0460 oh         1 QDK      -0.637000
      9 C5           2.5230     0.1080    -0.4900 c3         1 QDK       0.131600
     10 O5           3.5120    -0.8390    -0.0420 oh         1 QDK      -0.708000
     11 H1          -1.9990    -1.7640     0.2770 h1         1 QDK       0.036700
     12 H1A         -1.6740    -1.0880    -1.3220 h1         1 QDK       0.036700
     13 HO1         -3.9620    -1.4030    -0.9340 ho         1 QDK       0.447000
     14 H3          -0.0950     0.4830    -1.4070 h1         1 QDK       0.076700
     15 HO3         -0.2290     2.4330     0.6210 ho         1 QDK       0.523000
     16 H4           1.2930     0.0560     1.2840 h1         1 QDK       0.098700
     17 HO4          1.7580    -1.9960     0.0370 ho         1 QDK       0.439000
     18 H5           2.3900     0.0370    -1.5780 h1         1 QDK       0.028700
     19 H5A          2.8450     1.1330    -0.2590 h1         1 QDK       0.028700
     20 HO5          4.3710    -0.5790    -0.4540 ho         1 QDK       0.507000
@<TRIPOS>BOND
     1     1     2 1   
     2     1     3 1   
     3     1    11 1   
     4     1    12 1   
     5     2    13 1   
     6     3     4 2   
     7     3     5 1   
     8     5     6 1   
     9     5     7 1   
    10     5    14 1   
    11     6    15 1   
    12     7     8 1   
    13     7     9 1   
    14     7    16 1   
    15     8    17 1   
    16     9    10 1   
    17     9    18 1   
    18     9    19 1   
    19    10    20 1   
@<TRIPOS>SUBSTRUCTURE
     1 QDK         1 TEMP              0 ****  ****    0 ROOT
