@<TRIPOS>MOLECULE
QDK
   20    19     1     0     0
SMALL
abcg2


@<TRIPOS>ATOM
      1 C1          -2.1490    -0.7180    -0.6170 c3         1 QDK       0.070600
      2 O1          -3.3100    -1.0130     0.0930 oh         1 QDK      -0.624000
      3 C2          -1.2960     0.2410     0.1560 c          1 QDK       0.552100
      4 O2          -1.6460     0.7490     1.1930 o          1 QDK      -0.481100
      5 C3           0.0580     0.5970    -0.4550 c3         1 QDK       0.036300
      6 O3           0.2420     1.9870    -0.4590 oh         1 QDK      -0.701000
      7 C4           1.1640    -0.1370     0.3250 c3         1 QDK       0.137300
      8 O4           0.8230    -1.4930     0.5040 oh         1 QDK      -0.637000
      9 C5           2.5110     0.0430    -0.3490 c3         1 QDK       0.131600
     10 O5           3.5080    -0.5100     0.4760 oh         1 QDK      -0.708000
     11 H1          -1.5390    -1.6040    -0.8450 h1         1 QDK       0.036700
     12 H1A         -2.3450    -0.2410    -1.5910 h1         1 QDK       0.036700
     13 HO1         -3.8320    -1.6280    -0.4310 ho         1 QDK       0.447000
     14 H3           0.0850     0.2790    -1.5040 h1         1 QDK       0.076700
     15 HO3          0.1480     2.3100     0.4450 ho         1 QDK       0.523000
     16 H4           1.2080     0.2960     1.3310 h1         1 QDK       0.098700
     17 HO4          1.0080    -1.9750    -0.3100 ho         1 QDK       0.439000
     18 H5           2.4810    -0.4450    -1.3350 h1         1 QDK       0.028700
     19 H5A          2.6770     1.1110    -0.5280 h1         1 QDK       0.028700
     20 HO5          4.3570    -0.3830     0.0430 ho         1 QDK       0.507000
@<TRIPOS>BOND
     1     1     2 1   
     2     1     3 1   
     3     1    11 1   
     4     1    12 1   
     5     2    13 1   
     6     3     4 2   
     7     3     5 1   
     8     5     6 1   
     9     5     7 1   
    10     5    14 1   
    11     6    15 1   
    12     7     8 1   
    13     7     9 1   
    14     7    16 1   
    15     8    17 1   
    16     9    10 1   
    17     9    18 1   
    18     9    19 1   
    19    10    20 1   
@<TRIPOS>SUBSTRUCTURE
     1 QDK         1 TEMP              0 ****  ****    0 ROOT
