@<TRIPOS>MOLECULE
QDL
   99   101     1     0     0
SMALL
abcg2


@<TRIPOS>ATOM
      1 C1         222.8820   258.1230   236.9100 c6         1 QDL      -0.108400
      2 C2         223.3480   259.3320   236.1170 c6         1 QDL       0.174300
      3 C3         222.1880   260.2960   235.9660 c6         1 QDL      -0.064400
      4 C4         220.9560   259.6480   235.3870 cx         1 QDL       0.119000
      5 C5         220.7520   258.1850   235.5070 cx         1 QDL       0.147200
      6 C6         221.7790   257.2930   236.2350 c6         1 QDL      -0.016000
      7 C10        221.1070   256.4640   237.3350 c3         1 QDL      -0.083100
      8 C11        222.3820   256.3270   235.2090 c3         1 QDL      -0.083100
      9 C13        218.7560   257.3040   234.2960 ce         1 QDL      -0.160000
     10 C14        217.4140   256.7520   234.1880 ce         1 QDL      -0.071200
     11 C15        216.9350   256.4980   232.9460 cf         1 QDL      -0.171000
     12 C16        215.6460   255.9700   232.5890 cf         1 QDL      -0.174000
     13 C17        215.2940   255.7580   231.3000 ce         1 QDL      -0.171000
     14 C18        214.0270   255.2470   230.8310 ce         1 QDL      -0.064200
     15 C19        216.6460   256.5020   235.4500 c3         1 QDL      -0.054900
     16 C20        213.8670   255.0970   229.4900 cf         1 QDL      -0.174000
     17 C21        212.9700   254.9160   231.8420 c3         1 QDL      -0.054900
     18 C22        212.7130   254.6240   228.7850 cf         1 QDL      -0.172000
     19 C23        212.6880   254.5200   227.4340 ce         1 QDL      -0.170000
     20 C24        211.5540   254.0660   226.6870 ce         1 QDL      -0.178000
     21 C25        211.4660   253.9400   225.3350 cf         1 QDL      -0.060200
     22 C26        210.2200   253.4830   224.7640 cf         1 QDL      -0.176000
     23 C27        209.9770   253.3370   223.4410 ce         1 QDL      -0.169000
     24 C28        212.5950   254.2560   224.3990 c3         1 QDL      -0.056900
     25 C29        208.7170   252.8900   222.9170 ce         1 QDL      -0.181000
     26 C30        208.3780   252.7540   221.6100 cf         1 QDL      -0.060200
     27 C31        207.0350   252.2980   221.2930 cf         1 QDL      -0.185000
     28 C32        209.3050   253.0600   220.4720 c3         1 QDL      -0.056900
     29 C33        206.5450   252.1310   220.0530 ce         1 QDL      -0.161000
     30 C34        205.1880   251.6760   219.7260 ce         1 QDL      -0.080200
     31 C35        205.1140   250.5530   218.6910 c6         1 QDL       0.001200
     32 C36        203.6710   250.3170   218.2300 c6         1 QDL      -0.069400
     33 C37        202.6900   250.3170   219.3790 c6         1 QDL       0.174300
     34 C38        202.7050   251.6910   220.0210 c6         1 QDL      -0.081200
     35 C39        204.0910   252.2060   220.3000 c2         1 QDL      -0.095400
     36 C41        205.6910   249.2700   219.3050 c3         1 QDL      -0.082600
     37 C42        205.9350   250.9010   217.4400 c3         1 QDL      -0.082600
     38 C43        204.0950   253.3730   221.2430 c3         1 QDL      -0.055900
     39 C8         219.3750   257.6310   235.4370 c2         1 QDL      -0.209200
     40 C9         219.7990   260.5960   235.2160 c3         1 QDL      -0.079100
     41 O12        224.3860   260.0260   236.7830 oh         1 QDL      -0.662000
     42 O40        201.4130   249.9730   218.8810 oh         1 QDL      -0.659000
     43 O7         221.2150   258.7700   234.2980 op         1 QDL      -0.440000
     44 HC1B       222.5180   258.4870   237.8790 hc         1 QDL       0.048200
     45 HC1A       223.7280   257.4610   237.1260 hc         1 QDL       0.048200
     46 HC2        223.6890   259.0170   235.1230 h1         1 QDL       0.047700
     47 HC3B       222.4710   261.1450   235.3340 hc         1 QDL       0.063700
     48 HC3A       221.9330   260.7090   236.9480 hc         1 QDL       0.063700
     49 H10C       220.5610   257.0930   238.0420 hc         1 QDL       0.038533
     50 H10A       220.4140   255.7260   236.9300 hc         1 QDL       0.038533
     51 H10B       221.8690   255.9230   237.8990 hc         1 QDL       0.038533
     52 H11C       223.0240   255.6020   235.7120 hc         1 QDL       0.038533
     53 H11B       221.6020   255.7690   234.6860 hc         1 QDL       0.038533
     54 H11A       222.9860   256.8400   234.4610 hc         1 QDL       0.038533
     55 HC13       219.2780   257.4630   233.3570 ha         1 QDL       0.187000
     56 HC15       217.5920   256.7210   232.1090 ha         1 QDL       0.171000
     57 HC16       214.9400   255.7410   233.3790 ha         1 QDL       0.174000
     58 HC17       216.0240   255.9940   230.5300 ha         1 QDL       0.170000
     59 H19C       216.5280   257.4240   236.0230 hc         1 QDL       0.041367
     60 H19A       215.6540   256.0960   235.2730 hc         1 QDL       0.041367
     61 H19B       217.1780   255.7990   236.0960 hc         1 QDL       0.041367
     62 HC20       214.7120   255.3690   228.8620 ha         1 QDL       0.168000
     63 H21A       212.7200   255.7920   232.4440 hc         1 QDL       0.042033
     64 H21B       212.0500   254.5540   231.3910 hc         1 QDL       0.042033
     65 H21C       213.3210   254.1480   232.5340 hc         1 QDL       0.042033
     66 HC22       211.8260   254.3410   229.3440 ha         1 QDL       0.173000
     67 HC23       213.5840   254.8060   226.8930 ha         1 QDL       0.171000
     68 HC24       210.6750   253.8030   227.2710 ha         1 QDL       0.170000
     69 HC26       209.4230   253.2490   225.4660 ha         1 QDL       0.171000
     70 HC27       210.7650   253.5750   222.7370 ha         1 QDL       0.173000
     71 H28C       213.4970   254.5780   224.9110 hc         1 QDL       0.043033
     72 H28A       212.8560   253.3840   223.7970 hc         1 QDL       0.043033
     73 H28B       212.3150   255.0480   223.7010 hc         1 QDL       0.043033
     74 HC29       207.9570   252.6460   223.6560 ha         1 QDL       0.169000
     75 HC31       206.3960   252.0780   222.1430 ha         1 QDL       0.173000
     76 H32A       210.2860   253.3930   220.7970 hc         1 QDL       0.042367
     77 H32B       209.4500   252.1810   219.8400 hc         1 QDL       0.042367
     78 H32C       208.8880   253.8410   219.8330 hc         1 QDL       0.042367
     79 HC33       207.2100   252.3020   219.2120 ha         1 QDL       0.175000
     80 H36B       203.3830   251.1080   217.5270 hc         1 QDL       0.055200
     81 H36A       203.6260   249.3730   217.6790 hc         1 QDL       0.055200
     82 HC37       203.0110   249.5800   220.1300 h1         1 QDL       0.033700
     83 H38B       202.1830   252.4020   219.3680 hc         1 QDL       0.051700
     84 H38A       202.1380   251.6790   220.9590 hc         1 QDL       0.051700
     85 H41C       205.1250   248.9440   220.1790 hc         1 QDL       0.035700
     86 H41A       205.6820   248.4560   218.5750 hc         1 QDL       0.035700
     87 H41B       206.7250   249.4170   219.6230 hc         1 QDL       0.035700
     88 H42A       207.0080   250.9150   217.6300 hc         1 QDL       0.035700
     89 H42C       205.7570   250.1510   216.6660 hc         1 QDL       0.035700
     90 H42B       205.6480   251.8720   217.0320 hc         1 QDL       0.035700
     91 H43A       205.0070   253.9630   221.2000 hc         1 QDL       0.042367
     92 H43B       203.2520   254.0310   221.0180 hc         1 QDL       0.042367
     93 H43C       203.9600   253.0470   222.2780 hc         1 QDL       0.042367
     94 HC8        218.8770   257.4870   236.3890 ha         1 QDL       0.180000
     95 HC9B       219.5090   261.0080   236.1840 hc         1 QDL       0.049367
     96 HC9C       220.0900   261.4320   234.5780 hc         1 QDL       0.049367
     97 HC9A       218.9280   260.1150   234.7770 hc         1 QDL       0.049367
     98 HO12       225.1480   259.4420   236.8390 ho         1 QDL       0.443000
     99 HO40       200.7950   249.9730   219.6190 ho         1 QDL       0.441000
@<TRIPOS>BOND
     1     1     2 1   
     2     1     6 1   
     3     1    44 1   
     4     1    45 1   
     5     2     3 1   
     6     2    41 1   
     7     2    46 1   
     8     3     4 1   
     9     3    47 1   
    10     3    48 1   
    11     4     5 1   
    12     4    40 1   
    13     4    43 1   
    14     5     6 1   
    15     5    39 1   
    16     5    43 1   
    17     6     7 1   
    18     6     8 1   
    19     7    49 1   
    20     7    50 1   
    21     7    51 1   
    22     8    52 1   
    23     8    53 1   
    24     8    54 1   
    25     9    10 1   
    26     9    39 2   
    27     9    55 1   
    28    10    11 2   
    29    10    15 1   
    30    11    12 1   
    31    11    56 1   
    32    12    13 2   
    33    12    57 1   
    34    13    14 1   
    35    13    58 1   
    36    14    16 2   
    37    14    17 1   
    38    15    59 1   
    39    15    60 1   
    40    15    61 1   
    41    16    18 1   
    42    16    62 1   
    43    17    63 1   
    44    17    64 1   
    45    17    65 1   
    46    18    19 2   
    47    18    66 1   
    48    19    20 1   
    49    19    67 1   
    50    20    21 2   
    51    20    68 1   
    52    21    22 1   
    53    21    24 1   
    54    22    23 2   
    55    22    69 1   
    56    23    25 1   
    57    23    70 1   
    58    24    71 1   
    59    24    72 1   
    60    24    73 1   
    61    25    26 2   
    62    25    74 1   
    63    26    27 1   
    64    26    28 1   
    65    27    29 2   
    66    27    75 1   
    67    28    76 1   
    68    28    77 1   
    69    28    78 1   
    70    29    30 1   
    71    29    79 1   
    72    30    31 1   
    73    30    35 2   
    74    31    32 1   
    75    31    36 1   
    76    31    37 1   
    77    32    33 1   
    78    32    80 1   
    79    32    81 1   
    80    33    34 1   
    81    33    42 1   
    82    33    82 1   
    83    34    35 1   
    84    34    83 1   
    85    34    84 1   
    86    35    38 1   
    87    36    85 1   
    88    36    86 1   
    89    36    87 1   
    90    37    88 1   
    91    37    89 1   
    92    37    90 1   
    93    38    91 1   
    94    38    92 1   
    95    38    93 1   
    96    39    94 1   
    97    40    95 1   
    98    40    96 1   
    99    40    97 1   
   100    41    98 1   
   101    42    99 1   
@<TRIPOS>SUBSTRUCTURE
     1 QDL         1 TEMP              0 ****  ****    0 ROOT
