@<TRIPOS>MOLECULE
QDL
   99   101     1     0     0
SMALL
No Charge or Current Charge


@<TRIPOS>ATOM
      1 C1         222.7310   258.0110   237.3200 c6         1 QDL      -0.108400
      2 C2         223.4120   259.2560   236.7100 c6         1 QDL       0.174300
      3 C3         222.3700   260.3820   236.5380 c6         1 QDL      -0.064400
      4 C4         221.1160   259.9410   235.7640 cx         1 QDL       0.119000
      5 C5         220.7410   258.4690   235.7280 cx         1 QDL       0.147200
      6 C6         221.6660   257.3720   236.3720 c6         1 QDL      -0.016000
      7 C10        220.8400   256.3400   237.2090 c3         1 QDL      -0.083100
      8 C11        222.3760   256.5460   235.2490 c3         1 QDL      -0.083100
      9 C13        218.8770   257.4190   234.4360 ce         1 QDL      -0.160000
     10 C14        217.5010   256.9770   234.1360 ce         1 QDL      -0.071200
     11 C15        217.1740   256.5860   232.8680 cf         1 QDL      -0.171000
     12 C16        215.8730   256.1190   232.3920 cf         1 QDL      -0.174000
     13 C17        215.6390   255.6890   231.1190 ce         1 QDL      -0.171000
     14 C18        214.3580   255.2190   230.5550 ce         1 QDL      -0.064200
     15 C19        216.5180   256.9080   235.3030 c3         1 QDL      -0.054900
     16 C20        214.2260   255.0620   229.2040 cf         1 QDL      -0.174000
     17 C21        213.2490   254.8610   231.5430 c3         1 QDL      -0.054900
     18 C22        213.0430   254.6100   228.4740 cf         1 QDL      -0.172000
     19 C23        213.0030   254.4200   227.1280 ce         1 QDL      -0.170000
     20 C24        211.8070   253.9790   226.3930 ce         1 QDL      -0.178000
     21 C25        211.7070   253.7110   225.0560 cf         1 QDL      -0.060200
     22 C26        210.4230   253.2800   224.4920 cf         1 QDL      -0.176000
     23 C27        210.0840   253.2030   223.1730 ce         1 QDL      -0.169000
     24 C28        212.9070   253.7740   224.1140 c3         1 QDL      -0.056900
     25 C29        208.7610   252.7730   222.6930 ce         1 QDL      -0.181000
     26 C30        208.3610   252.6140   221.3960 cf         1 QDL      -0.060200
     27 C31        206.9930   252.1750   221.1040 cf         1 QDL      -0.185000
     28 C32        209.3090   252.8050   220.2140 c3         1 QDL      -0.056900
     29 C33        206.3460   252.2140   219.9030 ce         1 QDL      -0.161000
     30 C34        204.9470   251.7340   219.6940 ce         1 QDL      -0.080200
     31 C35        204.7700   250.6830   218.5620 c6         1 QDL       0.001200
     32 C36        203.2600   250.4680   218.2340 c6         1 QDL      -0.069400
     33 C37        202.4050   250.2670   219.5030 c6         1 QDL       0.174300
     34 C38        202.4480   251.5380   220.3740 c6         1 QDL      -0.081200
     35 C39        203.8950   252.0940   220.5120 c2         1 QDL      -0.095400
     36 C41        205.4300   249.3480   219.0310 c3         1 QDL      -0.082600
     37 C42        205.4950   251.1250   217.2500 c3         1 QDL      -0.082600
     38 C43        203.9940   253.1170   221.6360 c3         1 QDL      -0.055900
     39 C8         219.2870   258.0770   235.5450 c2         1 QDL      -0.209200
     40 C9         220.0320   261.0110   235.6520 c3         1 QDL      -0.079100
     41 O12        224.4580   259.7040   237.5740 oh         1 QDL      -0.662000
     42 O40        201.0530   249.9680   219.1410 oh         1 QDL      -0.659000
     43 O7         221.3260   259.1470   234.5840 op         1 QDL      -0.440000
     44 HC1B       222.2550   258.2990   238.2690 hc         1 QDL       0.048200
     45 HC1A       223.4890   257.2600   237.5840 hc         1 QDL       0.048200
     46 HC2        223.8310   259.0000   235.7250 h1         1 QDL       0.047700
     47 HC3B       222.8290   261.2390   236.0270 hc         1 QDL       0.063700
     48 HC3A       222.0560   260.7420   237.5270 hc         1 QDL       0.063700
     49 H10C       220.2490   256.8390   237.9870 hc         1 QDL       0.038533
     50 H10A       220.1470   255.7620   236.5850 hc         1 QDL       0.038533
     51 H10B       221.4950   255.6180   237.7110 hc         1 QDL       0.038533
     52 H11C       223.0120   255.7580   235.6720 hc         1 QDL       0.038533
     53 H11B       221.6480   256.0580   234.5910 hc         1 QDL       0.038533
     54 H11A       223.0160   257.1720   234.6180 hc         1 QDL       0.038533
     55 HC13       219.6240   257.2070   233.6700 ha         1 QDL       0.187000
     56 HC15       217.9600   256.6390   232.1110 ha         1 QDL       0.171000
     57 HC16       215.0430   256.1450   233.0970 ha         1 QDL       0.174000
     58 HC17       216.4810   255.7070   230.4240 ha         1 QDL       0.170000
     59 H19C       215.9780   257.8550   235.4210 hc         1 QDL       0.041367
     60 H19A       215.7760   256.1130   235.1760 hc         1 QDL       0.041367
     61 H19B       217.0220   256.6880   236.2510 hc         1 QDL       0.041367
     62 HC20       215.0890   255.3140   228.5850 ha         1 QDL       0.168000
     63 H21A       212.6240   255.7330   231.7670 hc         1 QDL       0.042033
     64 H21B       212.5950   254.0680   231.1650 hc         1 QDL       0.042033
     65 H21C       213.6500   254.4820   232.4890 hc         1 QDL       0.042033
     66 HC22       212.1300   254.4220   229.0410 ha         1 QDL       0.173000
     67 HC23       213.9100   254.6160   226.5560 ha         1 QDL       0.171000
     68 HC24       210.9030   253.8750   226.9960 ha         1 QDL       0.170000
     69 HC26       209.6530   253.0100   225.2180 ha         1 QDL       0.171000
     70 HC27       210.8160   253.4980   222.4220 ha         1 QDL       0.173000
     71 H28C       213.8490   253.5500   224.6260 hc         1 QDL       0.043033
     72 H28A       212.8330   253.0390   223.3050 hc         1 QDL       0.043033
     73 H28B       212.9990   254.7670   223.6600 hc         1 QDL       0.043033
     74 HC29       208.0230   252.5790   223.4730 ha         1 QDL       0.169000
     75 HC31       206.4340   251.7770   221.9530 ha         1 QDL       0.173000
     76 H32A       210.3490   252.5840   220.4750 hc         1 QDL       0.042367
     77 H32B       209.0680   252.1330   219.3820 hc         1 QDL       0.042367
     78 H32C       209.2680   253.8350   219.8380 hc         1 QDL       0.042367
     79 HC33       206.9040   252.6110   219.0400 ha         1 QDL       0.175000
     80 H36B       202.8740   251.3340   217.6790 hc         1 QDL       0.055200
     81 H36A       203.1420   249.6030   217.5670 hc         1 QDL       0.055200
     82 HC37       202.8210   249.4300   220.0830 h1         1 QDL       0.033700
     83 H38B       201.8110   252.3170   219.9320 hc         1 QDL       0.051700
     84 H38A       202.0310   251.3150   221.3660 hc         1 QDL       0.051700
     85 H41C       205.0150   249.0020   219.9840 hc         1 QDL       0.035700
     86 H41A       205.2840   248.5480   218.2950 hc         1 QDL       0.035700
     87 H41B       206.5100   249.4640   219.1770 hc         1 QDL       0.035700
     88 H42A       206.5860   251.1340   217.3580 hc         1 QDL       0.035700
     89 H42C       205.2670   250.4410   216.4230 hc         1 QDL       0.035700
     90 H42B       205.1800   252.1290   216.9420 hc         1 QDL       0.035700
     91 H43A       204.8430   253.7970   221.5070 hc         1 QDL       0.042367
     92 H43B       203.0960   253.7460   221.6810 hc         1 QDL       0.042367
     93 H43C       204.0990   252.6230   222.6090 hc         1 QDL       0.042367
     94 HC8        218.5620   258.3430   236.3350 ha         1 QDL       0.180000
     95 HC9B       219.4650   261.0860   236.5880 hc         1 QDL       0.049367
     96 HC9C       220.4690   261.9950   235.4460 hc         1 QDL       0.049367
     97 HC9A       219.3250   260.7870   234.8450 hc         1 QDL       0.049367
     98 HO12       225.1180   258.9780   237.6180 ho         1 QDL       0.443000
     99 HO40       200.5670   249.8020   219.9790 ho         1 QDL       0.441000
@<TRIPOS>BOND
     1     1     2 1   
     2     1     6 1   
     3     1    44 1   
     4     1    45 1   
     5     2     3 1   
     6     2    41 1   
     7     2    46 1   
     8     3     4 1   
     9     3    47 1   
    10     3    48 1   
    11     4     5 1   
    12     4    40 1   
    13     4    43 1   
    14     5     6 1   
    15     5    39 1   
    16     5    43 1   
    17     6     7 1   
    18     6     8 1   
    19     7    49 1   
    20     7    50 1   
    21     7    51 1   
    22     8    52 1   
    23     8    53 1   
    24     8    54 1   
    25     9    10 1   
    26     9    39 2   
    27     9    55 1   
    28    10    11 2   
    29    10    15 1   
    30    11    12 1   
    31    11    56 1   
    32    12    13 2   
    33    12    57 1   
    34    13    14 1   
    35    13    58 1   
    36    14    16 2   
    37    14    17 1   
    38    15    59 1   
    39    15    60 1   
    40    15    61 1   
    41    16    18 1   
    42    16    62 1   
    43    17    63 1   
    44    17    64 1   
    45    17    65 1   
    46    18    19 2   
    47    18    66 1   
    48    19    20 1   
    49    19    67 1   
    50    20    21 2   
    51    20    68 1   
    52    21    22 1   
    53    21    24 1   
    54    22    23 2   
    55    22    69 1   
    56    23    25 1   
    57    23    70 1   
    58    24    71 1   
    59    24    72 1   
    60    24    73 1   
    61    25    26 2   
    62    25    74 1   
    63    26    27 1   
    64    26    28 1   
    65    27    29 2   
    66    27    75 1   
    67    28    76 1   
    68    28    77 1   
    69    28    78 1   
    70    29    30 1   
    71    29    79 1   
    72    30    31 1   
    73    30    35 2   
    74    31    32 1   
    75    31    36 1   
    76    31    37 1   
    77    32    33 1   
    78    32    80 1   
    79    32    81 1   
    80    33    34 1   
    81    33    42 1   
    82    33    82 1   
    83    34    35 1   
    84    34    83 1   
    85    34    84 1   
    86    35    38 1   
    87    36    85 1   
    88    36    86 1   
    89    36    87 1   
    90    37    88 1   
    91    37    89 1   
    92    37    90 1   
    93    38    91 1   
    94    38    92 1   
    95    38    93 1   
    96    39    94 1   
    97    40    95 1   
    98    40    96 1   
    99    40    97 1   
   100    41    98 1   
   101    42    99 1   
@<TRIPOS>SUBSTRUCTURE
     1 QDL         1 TEMP              0 ****  ****    0 ROOT
