@<TRIPOS>MOLECULE
QDM
   66    68     1     0     0
SMALL
No Charge or Current Charge


@<TRIPOS>ATOM
      1 O2A          0.3580    -5.2560     0.1800 o          1 QDM      -0.857000
      2 PA           1.2470    -4.0570     0.1130 p5         1 QDM       1.464800
      3 O1A          2.6570    -4.4930    -0.1070 o          1 QDM      -0.857000
      4 O3A          1.0220    -3.1560     1.3890 os         1 QDM      -0.688800
      5 PB           2.1880    -2.2030     1.8490 p5         1 QDM       1.474800
      6 O1B          3.3860    -2.9380     2.3440 o          1 QDM      -0.852500
      7 O3B          2.4650    -1.3710     0.5120 os         1 QDM      -0.601400
      8 C1Q          3.5730    -0.4720     0.4250 c6         1 QDM       0.430300
      9 C2Q          3.5160     0.8020     1.3660 c6         1 QDM       0.154300
     10 O2Q          3.5400     0.4910     2.7830 oh         1 QDM      -0.682000
     11 C3Q          2.2790     1.6990     0.9770 c6         1 QDM       0.205500
     12 N3Q          2.1610     2.9140     1.8870 n3         1 QDM      -0.739600
     13 C2M          3.2470     3.9120     1.7530 c3         1 QDM       0.184100
     14 C1M          0.8190     3.5310     1.9310 c3         1 QDM       0.184100
     15 C4Q          2.3450     2.0340    -0.5690 c6         1 QDM       0.117300
     16 O4Q          1.1940     2.7700    -1.0300 oh         1 QDM      -0.711000
     17 C5Q          2.4990     0.7180    -1.3980 c6         1 QDM       0.140300
     18 C6Q          2.7190     0.9740    -2.9120 c3         1 QDM      -0.078100
     19 O5Q          3.6480    -0.0370    -0.9460 os         1 QDM      -0.480000
     20 O2B          1.6840    -1.2690     2.8990 o          1 QDM      -0.852500
     21 O5           0.7540    -3.0640    -1.0590 os         1 QDM      -0.572400
     22 C5          -0.6380    -2.8840    -1.3850 c3         1 QDM       0.236600
     23 C4          -1.4280    -2.2100    -0.2270 c5         1 QDM       0.156300
     24 C3          -2.9230    -1.9340    -0.5510 c5         1 QDM       0.128300
     25 O3          -3.7380    -3.1090    -0.5240 oh         1 QDM      -0.691000
     26 C2          -3.2740    -0.9620     0.6050 c5         1 QDM      -0.155400
     27 C1          -1.9220    -0.2130     0.8320 c5         1 QDM       0.346700
     28 O4          -0.9300    -0.8800     0.0330 os         1 QDM      -0.412000
     29 N1          -2.1330     1.2130     0.4640 n          1 QDM      -0.310000
     30 C6          -2.4640     2.1080     1.4840 cc         1 QDM       0.025600
     31 C7          -2.6130     3.4510     1.2180 cd         1 QDM      -0.296400
     32 C5M         -2.9430     4.4800     2.2740 c3         1 QDM      -0.007900
     33 C8          -2.4380     3.9550    -0.1650 c          1 QDM       0.597200
     34 O6          -2.5430     5.1240    -0.4970 o          1 QDM      -0.564000
     35 N3          -2.1560     2.9880    -1.0730 ns         1 QDM      -0.469500
     36 C9          -1.9960     1.6530    -0.8740 c          1 QDM       0.620000
     37 O2          -1.7920     0.9260    -1.8320 o          1 QDM      -0.539000
     38 H3           4.4950    -1.0270     0.6580 h2         1 QDM       0.045700
     39 H4           4.4240     1.3810     1.1420 h1         1 QDM      -0.010300
     40 H5           2.7510    -0.1120     2.9450 ho         1 QDM       0.490000
     41 H6           1.3900     1.0640     1.1160 h1         1 QDM       0.135700
     42 H8           3.2040     4.4110     0.7760 h1         1 QDM       0.015033
     43 H9           3.1560     4.6820     2.5300 h1         1 QDM       0.015033
     44 H10          4.2340     3.4460     1.8620 h1         1 QDM       0.015033
     45 H11          0.0510     2.7600     2.0620 h1         1 QDM       0.015033
     46 H12          0.7460     4.2240     2.7800 h1         1 QDM       0.015033
     47 H13          0.6000     4.0990     1.0180 h1         1 QDM       0.015033
     48 H14          3.2450     2.6400    -0.7440 h1         1 QDM      -0.000300
     49 H15          1.5010     3.3430    -1.7670 ho         1 QDM       0.480000
     50 H16          1.5890     0.1060    -1.2830 h1         1 QDM       0.140700
     51 H17          3.5910     1.6170    -3.0870 hc         1 QDM       0.027033
     52 H18          2.8820     0.0320    -3.4490 hc         1 QDM       0.027033
     53 H19          1.8470     1.4600    -3.3660 hc         1 QDM       0.027033
     54 H20         -0.7300    -2.2570    -2.2810 h1         1 QDM       0.030700
     55 H21         -1.1040    -3.8500    -1.6160 h1         1 QDM       0.030700
     56 H22         -1.3480    -2.8160     0.6840 h1         1 QDM       0.085700
     57 H23         -3.0080    -1.4280    -1.5240 h1         1 QDM       0.067700
     58 H24         -4.6700    -2.8180    -0.6610 ho         1 QDM       0.485000
     59 H25         -4.1090    -0.2980     0.3510 hc         1 QDM       0.052200
     60 H26         -3.5600    -1.5020     1.5160 hc         1 QDM       0.052200
     61 H27         -1.6300    -0.2440     1.8890 h2         1 QDM       0.048700
     62 H28         -2.5690     1.6430     2.4610 h4         1 QDM       0.203000
     63 H29         -2.1520     5.2350     2.3520 hc         1 QDM       0.036700
     64 H30         -3.8820     4.9980     2.0430 hc         1 QDM       0.036700
     65 H31         -3.0560     4.0180     3.2630 hc         1 QDM       0.036700
     66 H32         -2.0430     3.3000    -2.0220 hn         1 QDM       0.335500
@<TRIPOS>BOND
     1     1     2 1   
     2     2     3 1   
     3     2     4 1   
     4     2    21 1   
     5     4     5 1   
     6     5     6 1   
     7     5     7 1   
     8     5    20 1   
     9     7     8 1   
    10     8     9 1   
    11     8    19 1   
    12     8    38 1   
    13     9    10 1   
    14     9    11 1   
    15     9    39 1   
    16    10    40 1   
    17    11    12 1   
    18    11    15 1   
    19    11    41 1   
    20    12    13 1   
    21    12    14 1   
    22    13    42 1   
    23    13    43 1   
    24    13    44 1   
    25    14    45 1   
    26    14    46 1   
    27    14    47 1   
    28    15    16 1   
    29    15    17 1   
    30    15    48 1   
    31    16    49 1   
    32    17    18 1   
    33    17    19 1   
    34    17    50 1   
    35    18    51 1   
    36    18    52 1   
    37    18    53 1   
    38    21    22 1   
    39    22    23 1   
    40    22    54 1   
    41    22    55 1   
    42    23    24 1   
    43    23    28 1   
    44    23    56 1   
    45    24    25 1   
    46    24    26 1   
    47    24    57 1   
    48    25    58 1   
    49    26    27 1   
    50    26    59 1   
    51    26    60 1   
    52    27    28 1   
    53    27    29 1   
    54    27    61 1   
    55    29    30 1   
    56    29    36 1   
    57    30    31 2   
    58    30    62 1   
    59    31    32 1   
    60    31    33 1   
    61    32    63 1   
    62    32    64 1   
    63    32    65 1   
    64    33    34 2   
    65    33    35 1   
    66    35    36 1   
    67    35    66 1   
    68    36    37 2   
@<TRIPOS>SUBSTRUCTURE
     1 QDM         1 TEMP              0 ****  ****    0 ROOT
