@<TRIPOS>MOLECULE
QDM
   66    68     1     0     0
SMALL
abcg2


@<TRIPOS>ATOM
      1 O2A          0.4010    -4.6600    -0.4740 o          1 QDM      -0.857000
      2 PA           1.2110    -3.4010    -0.3800 p5         1 QDM       1.464800
      3 O1A          1.9880    -2.9290    -1.5670 o          1 QDM      -0.857000
      4 O3A          2.1430    -3.5530     0.9590 os         1 QDM      -0.688800
      5 PB           3.6240    -2.9360     1.2990 p5         1 QDM       1.474800
      6 O1B          4.6520    -3.4150     0.3290 o          1 QDM      -0.852500
      7 O3B          3.2340    -1.3640     1.0300 os         1 QDM      -0.601400
      8 C1Q          4.1930    -0.3570     1.0640 c6         1 QDM       0.430300
      9 C2Q          3.4850     0.9360     1.4820 c6         1 QDM       0.154300
     10 O2Q          2.8230     0.7910     2.7090 oh         1 QDM      -0.682000
     11 C3Q          2.4690     1.3380     0.4100 c6         1 QDM       0.205500
     12 N3Q          1.7500     2.5350     0.8040 n3         1 QDM      -0.739600
     13 C2M          2.4400     3.7890     0.6290 c3         1 QDM       0.184100
     14 C1M          0.3720     2.6030     0.3880 c3         1 QDM       0.184100
     15 C4Q          3.2010     1.4230    -0.9350 c6         1 QDM       0.117300
     16 O4Q          2.2570     1.7080    -1.9420 oh         1 QDM      -0.711000
     17 C5Q          3.9500     0.1190    -1.2390 c6         1 QDM       0.140300
     18 C6Q          4.8020     0.2210    -2.4880 c3         1 QDM      -0.078100
     19 O5Q          4.8310    -0.1850    -0.1620 os         1 QDM      -0.480000
     20 O2B          3.8310    -3.1420     2.7680 o          1 QDM      -0.852500
     21 O5           0.2520    -2.1910     0.1890 os         1 QDM      -0.572400
     22 C5          -0.8940    -1.8650    -0.5700 c3         1 QDM       0.236600
     23 C4          -2.0880    -1.6670     0.3320 c5         1 QDM       0.156300
     24 C3          -3.4100    -1.5750    -0.4290 c5         1 QDM       0.128300
     25 O3          -3.9250    -2.8720    -0.5990 oh         1 QDM      -0.691000
     26 C2          -4.2470    -0.6730     0.4780 c5         1 QDM      -0.155400
     27 C1          -3.2200     0.1200     1.2920 c5         1 QDM       0.346700
     28 O4          -1.9640    -0.4530     1.0560 os         1 QDM      -0.412000
     29 N1          -3.1570     1.5570     1.0290 n          1 QDM      -0.310000
     30 C6          -3.2190     2.4280     2.0870 cc         1 QDM       0.025600
     31 C7          -3.1330     3.7650     1.9780 cd         1 QDM      -0.296400
     32 C5M         -3.2060     4.6870     3.1500 c3         1 QDM      -0.007900
     33 C8          -2.9620     4.3260     0.6540 c          1 QDM       0.597200
     34 O6          -2.8770     5.5150     0.4030 o          1 QDM      -0.564000
     35 N3          -2.8910     3.3860    -0.3570 ns         1 QDM      -0.469500
     36 C9          -2.9630     2.0200    -0.2520 c          1 QDM       0.620000
     37 O2          -2.8680     1.2980    -1.2220 o          1 QDM      -0.539000
     38 H3           4.9940    -0.5880     1.7800 h2         1 QDM       0.045700
     39 H4           4.2650     1.7110     1.5500 h1         1 QDM      -0.010300
     40 H5           3.4750     0.5510     3.3750 ho         1 QDM       0.490000
     41 H6           1.7300     0.5310     0.3390 h1         1 QDM       0.135700
     42 H8           2.4850     4.1390    -0.4140 h1         1 QDM       0.015033
     43 H9           1.9350     4.5670     1.2060 h1         1 QDM       0.015033
     44 H10          3.4630     3.7280     1.0020 h1         1 QDM       0.015033
     45 H11         -0.1200     1.6470     0.5760 h1         1 QDM       0.015033
     46 H12         -0.1450     3.3640     0.9790 h1         1 QDM       0.015033
     47 H13          0.2270     2.8530    -0.6710 h1         1 QDM       0.015033
     48 H14          3.9520     2.2270    -0.8700 h1         1 QDM      -0.000300
     49 H15          2.7200     2.0980    -2.6900 ho         1 QDM       0.480000
     50 H16          3.2210    -0.6910    -1.3650 h1         1 QDM       0.140700
     51 H17          5.5080     1.0520    -2.4260 hc         1 QDM       0.027033
     52 H18          5.3670    -0.6990    -2.6430 hc         1 QDM       0.027033
     53 H19          4.1820     0.3660    -3.3720 hc         1 QDM       0.027033
     54 H20         -0.7220    -0.9510    -1.1480 h1         1 QDM       0.030700
     55 H21         -1.1510    -2.6600    -1.2790 h1         1 QDM       0.030700
     56 H22         -2.1550    -2.5130     1.0320 h1         1 QDM       0.085700
     57 H23         -3.2510    -1.0930    -1.3970 h1         1 QDM       0.067700
     58 H24         -4.6310    -2.8320    -1.2500 ho         1 QDM       0.485000
     59 H25         -4.9540    -0.0410    -0.0560 hc         1 QDM       0.052200
     60 H26         -4.8170    -1.3000     1.1650 hc         1 QDM       0.052200
     61 H27         -3.4660     0.0560     2.3550 h2         1 QDM       0.048700
     62 H28         -3.3510     1.9580     3.0530 h4         1 QDM       0.203000
     63 H29         -2.3040     5.2940     3.2330 hc         1 QDM       0.036700
     64 H30         -4.0500     5.3730     3.0650 hc         1 QDM       0.036700
     65 H31         -3.3210     4.1300     4.0790 hc         1 QDM       0.036700
     66 H32         -2.7580     3.7380    -1.2980 hn         1 QDM       0.335500
@<TRIPOS>BOND
     1     1     2 1   
     2     2     3 1   
     3     2     4 1   
     4     2    21 1   
     5     4     5 1   
     6     5     6 1   
     7     5     7 1   
     8     5    20 1   
     9     7     8 1   
    10     8     9 1   
    11     8    19 1   
    12     8    38 1   
    13     9    10 1   
    14     9    11 1   
    15     9    39 1   
    16    10    40 1   
    17    11    12 1   
    18    11    15 1   
    19    11    41 1   
    20    12    13 1   
    21    12    14 1   
    22    13    42 1   
    23    13    43 1   
    24    13    44 1   
    25    14    45 1   
    26    14    46 1   
    27    14    47 1   
    28    15    16 1   
    29    15    17 1   
    30    15    48 1   
    31    16    49 1   
    32    17    18 1   
    33    17    19 1   
    34    17    50 1   
    35    18    51 1   
    36    18    52 1   
    37    18    53 1   
    38    21    22 1   
    39    22    23 1   
    40    22    54 1   
    41    22    55 1   
    42    23    24 1   
    43    23    28 1   
    44    23    56 1   
    45    24    25 1   
    46    24    26 1   
    47    24    57 1   
    48    25    58 1   
    49    26    27 1   
    50    26    59 1   
    51    26    60 1   
    52    27    28 1   
    53    27    29 1   
    54    27    61 1   
    55    29    30 1   
    56    29    36 1   
    57    30    31 2   
    58    30    62 1   
    59    31    32 1   
    60    31    33 1   
    61    32    63 1   
    62    32    64 1   
    63    32    65 1   
    64    33    34 2   
    65    33    35 1   
    66    35    36 1   
    67    35    66 1   
    68    36    37 2   
@<TRIPOS>SUBSTRUCTURE
     1 QDM         1 TEMP              0 ****  ****    0 ROOT
