@<TRIPOS>MOLECULE
QDO
   24    25     1     0     0
SMALL
No Charge or Current Charge


@<TRIPOS>ATOM
      1 O3           1.1450    -1.7680     2.0220 o          1 QDO      -0.571200
      2 N3           1.1500    -1.0080     1.0350 na         1 QDO       0.560000
      3 C2          -0.0600    -0.5230     0.5100 ca         1 QDO      -0.182300
      4 C1          -1.3510    -1.2970     0.8010 c3         1 QDO       0.141900
      5 C11         -0.0510     0.6420    -0.3100 ca         1 QDO      -0.182300
      6 C12         -1.3320     1.2030    -0.9390 c3         1 QDO       0.141900
      7 C4           2.3660    -0.5340     0.5110 ca         1 QDO      -0.066800
      8 C5           3.5840    -1.2050     0.7730 ca         1 QDO      -0.064500
      9 C6           4.7910    -0.7260     0.2390 ca         1 QDO      -0.088000
     10 C7           4.7970     0.4240    -0.5640 ca         1 QDO      -0.088000
     11 C8           3.5960     1.1000    -0.8350 ca         1 QDO      -0.064500
     12 C9           2.3720     0.6310    -0.3020 ca         1 QDO      -0.066800
     13 N10          1.1640     1.2950    -0.5720 na         1 QDO       0.468300
     14 O10          1.1680     2.4800    -0.9400 o          1 QDO      -0.479500
     15 H2          -1.2790    -1.9020     1.7140 h1         1 QDO       0.104700
     16 H3          -2.2120    -0.6270     0.9060 h1         1 QDO       0.104700
     17 H5          -1.1150     1.8440    -1.8030 h1         1 QDO       0.104700
     18 H6          -2.0070     0.4030    -1.2680 h1         1 QDO       0.104700
     19 H8           3.5980    -2.1030     1.3900 ha         1 QDO       0.164500
     20 H9           5.7230    -1.2490     0.4460 ha         1 QDO       0.132500
     21 H10          5.7330     0.7930    -0.9790 ha         1 QDO       0.132500
     22 H11          3.6210     1.9880    -1.4650 ha         1 QDO       0.164500
     23 Br1         -2.3410     2.3220     0.3640 br         1 QDO      -0.235500
     24 Br2         -1.7680    -2.5590    -0.6820 br         1 QDO      -0.235500
@<TRIPOS>BOND
     1     1     2 2   
     2     2     3 1   
     3     2     7 2   
     4     3     4 1   
     5     3     5 2   
     6     4    15 1   
     7     4    16 1   
     8     4    24 1   
     9     5     6 1   
    10     5    13 1   
    11     6    17 1   
    12     6    18 1   
    13     6    23 1   
    14     7     8 ar  
    15     7    12 ar  
    16     8     9 ar  
    17     8    19 1   
    18     9    10 ar  
    19     9    20 1   
    20    10    11 ar  
    21    10    21 1   
    22    11    12 ar  
    23    11    22 1   
    24    12    13 2   
    25    13    14 1   
@<TRIPOS>SUBSTRUCTURE
     1 QDO         1 TEMP              0 ****  ****    0 ROOT
