@<TRIPOS>MOLECULE
QDO
   24    25     1     0     0
SMALL
abcg2


@<TRIPOS>ATOM
      1 O3           1.1200    -2.2690     1.4050 o          1 QDO      -0.571200
      2 N3           1.1140    -1.1950     0.7490 na         1 QDO       0.560000
      3 C2          -0.0280    -0.5900     0.4020 ca         1 QDO      -0.182300
      4 C1          -1.2780    -1.2180     0.8800 c3         1 QDO       0.141900
      5 C11         -0.0240     0.5710    -0.3920 ca         1 QDO      -0.182300
      6 C12         -1.2690     1.2110    -0.8660 c3         1 QDO       0.141900
      7 C4           2.3170    -0.6140     0.3700 ca         1 QDO      -0.066800
      8 C5           3.5270    -1.2190     0.7350 ca         1 QDO      -0.064500
      9 C6           4.7080    -0.6300     0.3630 ca         1 QDO      -0.088000
     10 C7           4.7130     0.5650    -0.3730 ca         1 QDO      -0.088000
     11 C8           3.5350     1.1660    -0.7390 ca         1 QDO      -0.064500
     12 C9           2.3220     0.5740    -0.3690 ca         1 QDO      -0.066800
     13 N10          1.1230     1.1660    -0.7430 na         1 QDO       0.468300
     14 O10          1.1370     2.2400    -1.3980 o          1 QDO      -0.479500
     15 H2          -1.1450    -1.6570     1.8660 h1         1 QDO       0.104700
     16 H3          -2.1100    -0.5210     0.9180 h1         1 QDO       0.104700
     17 H5          -1.1350     1.6500    -1.8520 h1         1 QDO       0.104700
     18 H6          -2.1070     0.5220    -0.9020 h1         1 QDO       0.104700
     19 H8           3.5180    -2.1370     1.3020 ha         1 QDO       0.164500
     20 H9           5.6450    -1.0920     0.6400 ha         1 QDO       0.132500
     21 H10          5.6530     1.0180    -0.6540 ha         1 QDO       0.132500
     22 H11          3.5330     2.0830    -1.3070 ha         1 QDO       0.164500
     23 BR1         -1.7750     2.6820     0.3460 br         1 QDO      -0.235500
     24 BR2         -1.8010    -2.6840    -0.3300 br         1 QDO      -0.235500
@<TRIPOS>BOND
     1     1     2 2   
     2     2     3 1   
     3     2     7 2   
     4     3     4 1   
     5     3     5 ar  
     6     4    15 1   
     7     4    16 1   
     8     4    24 1   
     9     5     6 1   
    10     5    13 1   
    11     6    17 1   
    12     6    18 1   
    13     6    23 1   
    14     7     8 ar  
    15     7    12 ar  
    16     8     9 ar  
    17     8    19 1   
    18     9    10 ar  
    19     9    20 1   
    20    10    11 ar  
    21    10    21 1   
    22    11    12 ar  
    23    11    22 1   
    24    12    13 2   
    25    13    14 1   
@<TRIPOS>SUBSTRUCTURE
     1 QDO         1 TEMP              0 ****  ****    0 ROOT
