@<TRIPOS>MOLECULE
QDP
   84    88     1     0     0
SMALL
No Charge or Current Charge


@<TRIPOS>ATOM
      1 C12          2.9040     0.4750     0.2580 c3         1 QDP      -0.028700
      2 C20         -0.7250     3.1520    -1.2790 ca         1 QDP      -0.037000
      3 C01         -4.1940     2.2460     3.0700 c3         1 QDP      -0.109433
      4 C02         -4.6900     1.6590     1.7250 c3         1 QDP       0.227000
      5 C03         -5.6850     0.4830     1.9070 c3         1 QDP      -0.109433
      6 C04         -5.3580     2.7590     0.8690 c3         1 QDP      -0.109433
      7 C06         -2.7530     0.1860     1.3170 c          1 QDP       0.661100
      8 C09         -1.0110    -1.2260     0.2040 c3         1 QDP       0.140700
      9 C10          0.4450    -0.8880    -0.1810 c3         1 QDP       0.026600
     10 C13          2.8300     1.9340    -0.2670 c3         1 QDP      -0.007100
     11 C14          1.5440     2.2430    -1.0450 ca         1 QDP      -0.066300
     12 C15          0.4150     2.9000    -0.4720 ca         1 QDP      -0.012000
     13 C16          0.3830     3.3130     0.8840 ca         1 QDP      -0.091000
     14 C17         -0.7340     3.9850     1.4050 ca         1 QDP      -0.104000
     15 C18         -1.8400     4.2530     0.5880 ca         1 QDP      -0.106000
     16 C19         -1.8420     3.8240    -0.7470 ca         1 QDP      -0.102000
     17 C21         -0.7510     2.7370    -2.6220 ca         1 QDP      -0.094000
     18 C22          0.3560     2.0840    -3.1780 ca         1 QDP      -0.112000
     19 C23          1.4950     1.8460    -2.3970 ca         1 QDP      -0.109000
     20 C24          4.1930     0.2540     1.0980 c          1 QDP       0.693500
     21 C27          5.5150    -1.0200    -0.2870 c2         1 QDP       0.509200
     22 C28          6.7400    -1.2560    -1.1410 c3         1 QDP      -0.089400
     23 C29          7.9240    -1.8070    -0.3500 ca         1 QDP      -0.145300
     24 C30          8.8000    -0.9370     0.3250 ca         1 QDP      -0.059000
     25 C31          9.8700    -1.4940     1.0440 ca         1 QDP      -0.160000
     26 C32         10.0290    -2.8900     1.0660 ca         1 QDP       0.340900
     27 C34          8.1610    -3.1960    -0.2710 ca         1 QDP       0.341900
     28 C35         -1.6410    -2.2190    -0.8070 c3         1 QDP      -0.050100
     29 C36         -3.0960    -2.5890    -0.4910 ca         1 QDP      -0.068300
     30 C37         -4.2190    -1.8980    -1.0320 ca         1 QDP      -0.019000
     31 C38         -4.0800    -0.7840    -1.8950 ca         1 QDP      -0.099000
     32 C39         -5.2100    -0.1220    -2.4030 ca         1 QDP      -0.108000
     33 C40         -6.4970    -0.5630    -2.0660 ca         1 QDP      -0.112000
     34 C41         -6.6560    -1.6660    -1.2150 ca         1 QDP      -0.099000
     35 C42         -5.5290    -2.3290    -0.6930 ca         1 QDP      -0.036000
     36 C43         -5.7170    -3.4180     0.1750 ca         1 QDP      -0.096000
     37 C44         -4.6110    -4.0870     0.7140 ca         1 QDP      -0.099000
     38 C45         -3.3120    -3.6750     0.3820 ca         1 QDP      -0.093000
     39 N08         -1.8320    -0.0180     0.3320 ns         1 QDP      -0.502900
     40 N26          5.3420     0.1070     0.3310 ne         1 QDP      -0.674100
     41 N33          9.1920    -3.7350     0.4220 nb         1 QDP      -0.663000
     42 O05         -3.5490     1.2340     0.9430 os         1 QDP      -0.475100
     43 O07         -2.8430    -0.4850     2.3330 o          1 QDP      -0.543000
     44 O25          4.2010     0.2020     2.3190 o          1 QDP      -0.506100
     45 S11          1.3500    -0.0080     1.1760 ss         1 QDP      -0.331000
     46 H1           2.9760    -0.1870    -0.6130 h1         1 QDP       0.079700
     47 H2          -3.4000     2.9840     2.9040 hc         1 QDP       0.048700
     48 H3          -5.0160     2.7450     3.5960 hc         1 QDP       0.048700
     49 H4          -3.8050     1.4670     3.7350 hc         1 QDP       0.048700
     50 H5          -6.6490     0.8520     2.2770 hc         1 QDP       0.048700
     51 H6          -5.8630    -0.0220     0.9530 hc         1 QDP       0.048700
     52 H7          -5.3270    -0.2560     2.6310 hc         1 QDP       0.048700
     53 H8          -4.6710     3.5920     0.6880 hc         1 QDP       0.048700
     54 H9          -5.6690     2.3580    -0.1030 hc         1 QDP       0.048700
     55 H10         -6.2460     3.1580     1.3720 hc         1 QDP       0.048700
     56 H11         -0.9790    -1.7310     1.1800 h1         1 QDP       0.101700
     57 H12          0.9890    -1.8140    -0.4040 h1         1 QDP       0.060200
     58 H13          0.4440    -0.2700    -1.0860 h1         1 QDP       0.060200
     59 H14          2.9910     2.6320     0.5590 hc         1 QDP       0.068700
     60 H15          3.6900     2.1010    -0.9270 hc         1 QDP       0.068700
     61 H16          1.2080     3.1190     1.5590 ha         1 QDP       0.120000
     62 H17         -0.7390     4.3020     2.4450 ha         1 QDP       0.116000
     63 H18         -2.6960     4.7860     0.9940 ha         1 QDP       0.112000
     64 H19         -2.7110     4.0220    -1.3700 ha         1 QDP       0.110000
     65 H20         -1.6280     2.9250    -3.2380 ha         1 QDP       0.112000
     66 H21          0.3330     1.7660    -4.2190 ha         1 QDP       0.112000
     67 H22          2.3480     1.3410    -2.8460 ha         1 QDP       0.107000
     68 H23          4.7860    -1.8220    -0.1930 h4         1 QDP      -0.022200
     69 H24          6.4750    -1.9480    -1.9500 hc         1 QDP       0.073200
     70 H25          7.0240    -0.3210    -1.6380 hc         1 QDP       0.073200
     71 H26          8.6530     0.1420     0.2960 ha         1 QDP       0.129000
     72 H27         10.5690    -0.8590     1.5800 ha         1 QDP       0.128000
     73 H28         10.8520    -3.3450     1.6160 h4         1 QDP       0.022100
     74 H29          7.5030    -3.9010    -0.7770 h4         1 QDP       0.016100
     75 H30         -1.5390    -1.8270    -1.8240 hc         1 QDP       0.050200
     76 H31         -1.0320    -3.1320    -0.8070 hc         1 QDP       0.050200
     77 H32         -3.1040    -0.4030    -2.1780 ha         1 QDP       0.106000
     78 H33         -5.0850     0.7370    -3.0590 ha         1 QDP       0.111000
     79 H34         -7.3710    -0.0490    -2.4620 ha         1 QDP       0.112000
     80 H35         -7.6580    -1.9990    -0.9540 ha         1 QDP       0.112000
     81 H36         -6.7210    -3.7450     0.4370 ha         1 QDP       0.112000
     82 H37         -4.7590    -4.9280     1.3890 ha         1 QDP       0.115000
     83 H38         -2.4650    -4.2080     0.8080 ha         1 QDP       0.111000
     84 H39         -1.8530     0.6460    -0.4280 hn         1 QDP       0.320500
@<TRIPOS>BOND
     1     1    10 1   
     2     1    20 1   
     3     1    45 1   
     4     1    46 1   
     5     2    12 ar  
     6     2    16 ar  
     7     2    17 ar  
     8     3     4 1   
     9     3    47 1   
    10     3    48 1   
    11     3    49 1   
    12     4     5 1   
    13     4     6 1   
    14     4    42 1   
    15     5    50 1   
    16     5    51 1   
    17     5    52 1   
    18     6    53 1   
    19     6    54 1   
    20     6    55 1   
    21     7    39 1   
    22     7    42 1   
    23     7    43 2   
    24     8     9 1   
    25     8    28 1   
    26     8    39 1   
    27     8    56 1   
    28     9    45 1   
    29     9    57 1   
    30     9    58 1   
    31    10    11 1   
    32    10    59 1   
    33    10    60 1   
    34    11    12 ar  
    35    11    19 ar  
    36    12    13 ar  
    37    13    14 ar  
    38    13    61 1   
    39    14    15 ar  
    40    14    62 1   
    41    15    16 ar  
    42    15    63 1   
    43    16    64 1   
    44    17    18 ar  
    45    17    65 1   
    46    18    19 ar  
    47    18    66 1   
    48    19    67 1   
    49    20    40 1   
    50    20    44 2   
    51    21    22 1   
    52    21    40 2   
    53    21    68 1   
    54    22    23 1   
    55    22    69 1   
    56    22    70 1   
    57    23    24 ar  
    58    23    27 ar  
    59    24    25 ar  
    60    24    71 1   
    61    25    26 ar  
    62    25    72 1   
    63    26    41 ar  
    64    26    73 1   
    65    27    41 ar  
    66    27    74 1   
    67    28    29 1   
    68    28    75 1   
    69    28    76 1   
    70    29    30 ar  
    71    29    38 ar  
    72    30    31 ar  
    73    30    35 ar  
    74    31    32 ar  
    75    31    77 1   
    76    32    33 ar  
    77    32    78 1   
    78    33    34 ar  
    79    33    79 1   
    80    34    35 ar  
    81    34    80 1   
    82    35    36 ar  
    83    36    37 ar  
    84    36    81 1   
    85    37    38 ar  
    86    37    82 1   
    87    38    83 1   
    88    39    84 1   
@<TRIPOS>SUBSTRUCTURE
     1 QDP         1 TEMP              0 ****  ****    0 ROOT
