@<TRIPOS>MOLECULE
QDP
   84    88     1     0     0
SMALL
bcc


@<TRIPOS>ATOM
      1 C12          2.4390     0.9880    -0.1510 c3         1 QDP      -0.076600
      2 C20          0.0490     4.9850    -0.7150 ca         1 QDP      -0.037000
      3 C01         -4.4200     2.5060     1.8310 c3         1 QDP      -0.109433
      4 C02         -4.8560     1.5280     0.7460 c3         1 QDP       0.203800
      5 C03         -5.8040     0.4600     1.2810 c3         1 QDP      -0.109433
      6 C04         -5.5280     2.2830    -0.3930 c3         1 QDP      -0.109433
      7 C06         -2.8800     0.0980     0.7430 c          1 QDP       0.777100
      8 C09         -0.9740    -1.3700     0.2130 c3         1 QDP       0.140700
      9 C10          0.4160    -0.9490    -0.2580 c3         1 QDP      -0.021300
     10 C13          2.8270     2.4520     0.1560 c3         1 QDP      -0.007100
     11 C14          1.9560     3.4460    -0.5650 ca         1 QDP      -0.066300
     12 C15          0.8440     4.0890     0.0550 ca         1 QDP      -0.012000
     13 C16          0.4810     3.8790     1.4090 ca         1 QDP      -0.109000
     14 C17         -0.6050     4.5030     1.9580 ca         1 QDP      -0.122000
     15 C18         -1.3950     5.3800     1.1880 ca         1 QDP      -0.124000
     16 C19         -1.0690     5.6160    -0.1180 ca         1 QDP      -0.120000
     17 C21          0.3790     5.2300    -2.0670 ca         1 QDP      -0.112000
     18 C22          1.4550     4.6120    -2.6380 ca         1 QDP      -0.130000
     19 C23          2.2390     3.7220    -1.8800 ca         1 QDP      -0.127000
     20 C24          3.4690     0.0650     0.4790 c          1 QDP       0.693500
     21 C27          5.0630    -1.0570    -0.7690 c2         1 QDP       0.509200
     22 C28          6.3730    -1.1400    -1.4790 c3         1 QDP      -0.089400
     23 C29          7.2840    -2.0860    -0.7420 ca         1 QDP      -0.210600
     24 C30          7.8880    -1.7140     0.4550 ca         1 QDP      -0.077000
     25 C31          8.7020    -2.6220     1.1110 ca         1 QDP      -0.243300
     26 C32          8.8790    -3.8780     0.5480 ca         1 QDP       0.406200
     27 C34          7.5310    -3.3710    -1.2110 ca         1 QDP       0.407200
     28 C35         -1.3640    -2.7410    -0.3660 c3         1 QDP      -0.050100
     29 C36         -2.6810    -3.2200     0.1830 ca         1 QDP      -0.068300
     30 C37         -3.9280    -2.9160    -0.4400 ca         1 QDP      -0.019000
     31 C38         -4.0310    -2.2140    -1.6670 ca         1 QDP      -0.117000
     32 C39         -5.2460    -1.9350    -2.2290 ca         1 QDP      -0.126000
     33 C40         -6.4370    -2.3440    -1.5970 ca         1 QDP      -0.130000
     34 C41         -6.3780    -3.0310    -0.4170 ca         1 QDP      -0.117000
     35 C42         -5.1350    -3.3340     0.1880 ca         1 QDP      -0.036000
     36 C43         -5.0800    -4.0490     1.4050 ca         1 QDP      -0.114000
     37 C44         -3.8750    -4.3460     1.9760 ca         1 QDP      -0.117000
     38 C45         -2.6820    -3.9270     1.3600 ca         1 QDP      -0.111000
     39 N08         -1.9380    -0.3520    -0.1160 ns         1 QDP      -0.569900
     40 N26          4.6500     0.0140    -0.2420 ne         1 QDP      -0.674100
     41 N33          8.3060    -4.2510    -0.5900 nb         1 QDP      -0.663000
     42 O05         -3.7020     0.9290     0.1060 os         1 QDP      -0.451900
     43 O07         -2.9410    -0.2030     1.9170 o          1 QDP      -0.592000
     44 O25          3.3290    -0.4870     1.5420 o          1 QDP      -0.506100
     45 S11          0.7650     0.6860     0.4470 ss         1 QDP      -0.235200
     46 H1           2.4640     0.8530    -1.2370 h1         1 QDP       0.079700
     47 H2          -3.7480     3.2650     1.4250 hc         1 QDP       0.048700
     48 H3          -5.2980     3.0170     2.2290 hc         1 QDP       0.048700
     49 H4          -3.9190     2.0070     2.6570 hc         1 QDP       0.048700
     50 H5          -6.7670     0.9170     1.5100 hc         1 QDP       0.048700
     51 H6          -5.9700    -0.3190     0.5350 hc         1 QDP       0.048700
     52 H7          -5.4340    -0.0130     2.1880 hc         1 QDP       0.048700
     53 H8          -4.8560     3.0220    -0.8320 hc         1 QDP       0.048700
     54 H9          -5.8540     1.6040    -1.1830 hc         1 QDP       0.048700
     55 H10         -6.4070     2.8110    -0.0210 hc         1 QDP       0.048700
     56 H11         -0.9530    -1.4590     1.3000 h1         1 QDP       0.101700
     57 H12          1.1480    -1.6830     0.0830 h1         1 QDP       0.060200
     58 H13          0.4640    -0.8990    -1.3490 h1         1 QDP       0.060200
     59 H14          2.8290     2.6080     1.2350 hc         1 QDP       0.068700
     60 H15          3.8590     2.5910    -0.1700 hc         1 QDP       0.068700
     61 H16          1.0630     3.2120     2.0300 ha         1 QDP       0.138000
     62 H17         -0.8600     4.3220     2.9940 ha         1 QDP       0.134000
     63 H18         -2.2530     5.8640     1.6350 ha         1 QDP       0.130000
     64 H19         -1.6660     6.2910    -0.7200 ha         1 QDP       0.128000
     65 H20         -0.2320     5.9150    -2.6420 ha         1 QDP       0.130000
     66 H21          1.7120     4.8020    -3.6720 ha         1 QDP       0.130000
     67 H22          3.0910     3.2440    -2.3510 ha         1 QDP       0.125000
     68 H23          4.4870    -1.9860    -0.7200 h4         1 QDP      -0.022200
     69 H24          6.1990    -1.5080    -2.4930 hc         1 QDP       0.073200
     70 H25          6.8170    -0.1460    -1.5510 hc         1 QDP       0.073200
     71 H26          7.7260    -0.7240     0.8650 ha         1 QDP       0.147000
     72 H27          9.1910    -2.3660     2.0400 ha         1 QDP       0.146000
     73 H28          9.5110    -4.6120     1.0370 h4         1 QDP       0.022100
     74 H29          7.0760    -3.6990    -2.1410 h4         1 QDP       0.016100
     75 H30         -1.3630    -2.6960    -1.4570 hc         1 QDP       0.050200
     76 H31         -0.5840    -3.4560    -0.0930 hc         1 QDP       0.050200
     77 H32         -3.1350    -1.8930    -2.1790 ha         1 QDP       0.124000
     78 H33         -5.2940    -1.3970    -3.1670 ha         1 QDP       0.129000
     79 H34         -7.3940    -2.1180    -2.0500 ha         1 QDP       0.130000
     80 H35         -7.2880    -3.3530     0.0740 ha         1 QDP       0.130000
     81 H36         -6.0060    -4.3610     1.8740 ha         1 QDP       0.130000
     82 H37         -3.8300    -4.9020     2.9040 ha         1 QDP       0.133000
     83 H38         -1.7360    -4.1620     1.8330 ha         1 QDP       0.129000
     84 H39         -1.9940    -0.0540    -1.0770 hn         1 QDP       0.320500
@<TRIPOS>BOND
     1     1    10 1   
     2     1    20 1   
     3     1    45 1   
     4     1    46 1   
     5     2    12 ar  
     6     2    16 ar  
     7     2    17 ar  
     8     3     4 1   
     9     3    47 1   
    10     3    48 1   
    11     3    49 1   
    12     4     5 1   
    13     4     6 1   
    14     4    42 1   
    15     5    50 1   
    16     5    51 1   
    17     5    52 1   
    18     6    53 1   
    19     6    54 1   
    20     6    55 1   
    21     7    39 1   
    22     7    42 1   
    23     7    43 2   
    24     8     9 1   
    25     8    28 1   
    26     8    39 1   
    27     8    56 1   
    28     9    45 1   
    29     9    57 1   
    30     9    58 1   
    31    10    11 1   
    32    10    59 1   
    33    10    60 1   
    34    11    12 ar  
    35    11    19 ar  
    36    12    13 ar  
    37    13    14 ar  
    38    13    61 1   
    39    14    15 ar  
    40    14    62 1   
    41    15    16 ar  
    42    15    63 1   
    43    16    64 1   
    44    17    18 ar  
    45    17    65 1   
    46    18    19 ar  
    47    18    66 1   
    48    19    67 1   
    49    20    40 1   
    50    20    44 2   
    51    21    22 1   
    52    21    40 2   
    53    21    68 1   
    54    22    23 1   
    55    22    69 1   
    56    22    70 1   
    57    23    24 ar  
    58    23    27 ar  
    59    24    25 ar  
    60    24    71 1   
    61    25    26 ar  
    62    25    72 1   
    63    26    41 ar  
    64    26    73 1   
    65    27    41 ar  
    66    27    74 1   
    67    28    29 1   
    68    28    75 1   
    69    28    76 1   
    70    29    30 ar  
    71    29    38 ar  
    72    30    31 ar  
    73    30    35 ar  
    74    31    32 ar  
    75    31    77 1   
    76    32    33 ar  
    77    32    78 1   
    78    33    34 ar  
    79    33    79 1   
    80    34    35 ar  
    81    34    80 1   
    82    35    36 ar  
    83    36    37 ar  
    84    36    81 1   
    85    37    38 ar  
    86    37    82 1   
    87    38    83 1   
    88    39    84 1   
@<TRIPOS>SUBSTRUCTURE
     1 QDP         1 TEMP              0 ****  ****    0 ROOT
