@<TRIPOS>MOLECULE
QDS
   29    30     1     0     0
SMALL
bcc


@<TRIPOS>ATOM
      1 N1          -6.5920    69.6380    23.5900 nb         1 QDS      -0.625000
      2 C2          -5.9590    70.4690    22.8110 ca         1 QDS       0.279500
      3 C3          -5.0900    71.4610    23.3330 ca         1 QDS       0.345900
      4 N4          -4.8780    71.5880    24.6110 nb         1 QDS      -0.654000
      5 C5          -5.3160    70.8150    26.8310 ca         1 QDS      -0.164300
      6 C6          -5.9620    69.9430    27.6650 ca         1 QDS      -0.130000
      7 C7          -6.8310    68.9570    27.1480 ca         1 QDS      -0.137000
      8 C8          -7.0460    68.8540    25.8010 ca         1 QDS      -0.147300
      9 C9          -6.3900    69.7400    24.9200 ca         1 QDS       0.291300
     10 C10         -5.5180    70.7300    25.4380 ca         1 QDS       0.288300
     11 C11         -6.1410    70.3590    21.3220 c          1 QDS       0.572600
     12 O12         -5.4990    71.0880    20.5750 o          1 QDS      -0.633100
     13 N           -7.0280    69.4450    20.9410 ns         1 QDS      -0.486900
     14 CA          -7.2970    69.0850    19.5680 c3         1 QDS      -0.089300
     15 C           -6.5140    67.7960    19.1630 c          1 QDS       0.924600
     16 O           -7.0960    67.0410    18.3550 o          1 QDS      -0.821300
     17 CB          -8.7960    68.9620    19.3290 c3         1 QDS       0.152400
     18 OG          -9.3590    67.8410    19.9710 oh         1 QDS      -0.634800
     19 OXT         -5.3900    67.6500    19.6620 o          1 QDS      -0.821300
     20 H3          -4.5780    72.1440    22.6660 h4         1 QDS       0.053100
     21 H5          -4.6470    71.5740    27.2150 ha         1 QDS       0.142000
     22 H6          -5.8060    70.0040    28.7340 ha         1 QDS       0.124000
     23 H7          -7.3250    68.2760    27.8280 ha         1 QDS       0.128000
     24 H8          -7.7110    68.1060    25.3890 ha         1 QDS       0.154000
     25 H           -7.4540    68.8870    21.6670 hn         1 QDS       0.331500
     26 HA          -6.9300    69.9010    18.9390 h1         1 QDS       0.067700
     27 HB2         -9.3010    69.8470    19.7250 h1         1 QDS       0.025700
     28 HB3         -8.9790    68.9470    18.2500 h1         1 QDS       0.025700
     29 HG          -8.9370    67.0770    19.5580 ho         1 QDS       0.437000
@<TRIPOS>BOND
     1     1     2 ar  
     2     1     9 ar  
     3     2     3 ar  
     4     2    11 1   
     5     3     4 ar  
     6     3    20 1   
     7     4    10 ar  
     8     5     6 ar  
     9     5    10 ar  
    10     5    21 1   
    11     6     7 ar  
    12     6    22 1   
    13     7     8 ar  
    14     7    23 1   
    15     8     9 ar  
    16     8    24 1   
    17     9    10 ar  
    18    11    12 2   
    19    11    13 1   
    20    13    14 1   
    21    13    25 1   
    22    14    15 1   
    23    14    17 1   
    24    14    26 1   
    25    15    16 1   
    26    15    19 1   
    27    17    18 1   
    28    17    27 1   
    29    17    28 1   
    30    18    29 1   
@<TRIPOS>SUBSTRUCTURE
     1 QDS         1 TEMP              0 ****  ****    0 ROOT
