@<TRIPOS>MOLECULE
QDS
   29    30     1     0     0
SMALL
No Charge or Current Charge


@<TRIPOS>ATOM
      1 N1          -6.4230    69.4170    23.6490 nb         1 QDS      -0.625000
      2 C2          -6.1260    70.4930    22.8490 ca         1 QDS       0.279500
      3 C3          -5.6750    71.7160    23.4030 ca         1 QDS       0.345900
      4 N4          -5.5120    71.8970    24.7440 nb         1 QDS      -0.654000
      5 C5          -5.6590    70.9510    26.9340 ca         1 QDS      -0.081000
      6 C6          -5.9520    69.8740    27.7860 ca         1 QDS      -0.112000
      7 C7          -6.3990    68.6580    27.2490 ca         1 QDS      -0.119000
      8 C8          -6.5520    68.5190    25.8600 ca         1 QDS      -0.064000
      9 C9          -6.2630    69.5870    24.9880 ca         1 QDS       0.226000
     10 C10         -5.8060    70.8320    25.5380 ca         1 QDS       0.223000
     11 C11         -6.2790    70.3810    21.3380 c          1 QDS       0.505600
     12 O12         -6.0200    71.2990    20.5640 o          1 QDS      -0.633100
     13 N           -6.7290    69.1550    20.8780 ns         1 QDS      -0.419900
     14 CA          -7.0050    68.8120    19.4570 c3         1 QDS      -0.089300
     15 C           -7.0820    67.2720    19.2850 c          1 QDS       0.714000
     16 O           -8.0570    66.6940    19.7480 o          1 QDS      -0.716000
     17 CB          -8.2780    69.5050    18.9110 c3         1 QDS       0.175600
     18 OG          -9.4280    69.0510    19.6320 oh         1 QDS      -0.697000
     19 OXT         -6.1530    66.7020    18.7330 o          1 QDS      -0.716000
     20 H3          -5.4400    72.5690    22.7680 h4         1 QDS       0.053100
     21 H5          -5.3130    71.8900    27.3570 ha         1 QDS       0.124000
     22 H6          -5.8330    69.9830    28.8620 ha         1 QDS       0.106000
     23 H7          -6.6270    67.8220    27.9080 ha         1 QDS       0.110000
     24 H8          -6.8980    67.5740    25.4490 ha         1 QDS       0.136000
     25 H           -6.9180    68.4610    21.5960 hn         1 QDS       0.331500
     26 HA          -6.1540    69.1570    18.8570 h1         1 QDS       0.067700
     27 HB2         -8.1760    70.5950    18.9950 h1         1 QDS       0.025700
     28 HB3         -8.3820    69.2620    17.8450 h1         1 QDS       0.025700
     29 HG          -9.2340    68.0960    19.8210 ho         1 QDS       0.476000
@<TRIPOS>BOND
     1     1     2 ar  
     2     1     9 ar  
     3     2     3 ar  
     4     2    11 1   
     5     3     4 ar  
     6     3    20 1   
     7     4    10 ar  
     8     5     6 ar  
     9     5    10 ar  
    10     5    21 1   
    11     6     7 ar  
    12     6    22 1   
    13     7     8 ar  
    14     7    23 1   
    15     8     9 ar  
    16     8    24 1   
    17     9    10 ar  
    18    11    12 2   
    19    11    13 1   
    20    13    14 1   
    21    13    25 1   
    22    14    15 1   
    23    14    17 1   
    24    14    26 1   
    25    15    16 1   
    26    15    19 1   
    27    17    18 1   
    28    17    27 1   
    29    17    28 1   
    30    18    29 1   
@<TRIPOS>SUBSTRUCTURE
     1 QDS         1 TEMP              0 ****  ****    0 ROOT
