@<TRIPOS>MOLECULE
QDT
   54    58     1     0     0
SMALL
abcg2


@<TRIPOS>ATOM
      1 C2         -23.2130    -3.7550    10.9190 cc         1 QDT      -0.210000
      2 C3         -22.8460    -3.5700     9.5680 cc         1 QDT      -0.095000
      3 C4         -23.2860    -2.5120     8.8280 cd         1 QDT      -0.051000
      4 C5         -25.4100    -0.0760     9.9410 cc         1 QDT       0.567300
      5 C6         -24.5120    -1.7630    10.7740 cd         1 QDT      -0.079000
      6 C7         -26.1730     1.1770     9.7980 cx         1 QDT      -0.217300
      7 C8         -25.9290     2.2520    10.8230 cx         1 QDT      -0.083900
      8 C17        -22.2010    -0.8380     5.6240 ca         1 QDT      -0.033000
      9 C21        -22.6250    -3.1850     5.2290 ca         1 QDT      -0.110300
     10 C22        -22.9770    -3.3850     6.5500 ca         1 QDT      -0.079000
     11 C19        -21.9620    -2.0380     3.3440 c          1 QDT       0.672700
     12 O4         -22.1610    -3.3130     2.9730 os         1 QDT      -0.426100
     13 C20        -22.5790    -4.1280     4.0730 c5         1 QDT       0.204900
     14 C18        -22.2520    -1.9360     4.7790 ca         1 QDT      -0.184600
     15 C16        -22.5490    -1.0280     6.9480 ca         1 QDT      -0.074000
     16 C15        -22.9380    -2.2920     7.4170 ca         1 QDT      -0.007000
     17 N          -24.1110    -1.6310     9.4780 na         1 QDT       0.317400
     18 C1         -24.0450    -2.8610    11.5390 cd         1 QDT       0.183100
     19 O          -24.4830    -2.8990    12.7960 os         1 QDT      -0.297100
     20 C          -24.0640    -3.9850    13.6080 c3         1 QDT       0.140900
     21 N2         -25.3420    -0.7760    11.0810 nc         1 QDT      -0.369300
     22 N1         -24.6850    -0.5490     8.9450 nd         1 QDT      -0.580100
     23 C9         -27.2160     1.5090    10.8380 cx         1 QDT      -0.083900
     24 C10        -26.4660     1.6020     8.3910 c          1 QDT       0.640100
     25 O1         -26.2100     2.6910     7.9430 o          1 QDT      -0.485000
     26 O2         -27.0900     0.6430     7.7270 os         1 QDT      -0.428100
     27 C11        -27.3680     0.8360     6.3330 c3         1 QDT       0.163600
     28 C12        -26.2260     0.3510     5.4500 c3         1 QDT      -0.083700
     29 C14        -25.9820    -1.1440     5.6100 c3         1 QDT      -0.088100
     30 C13        -26.5460     0.7040     4.0000 c3         1 QDT      -0.088100
     31 H1         -22.8170    -4.6120    11.4440 ha         1 QDT       0.133000
     32 H2         -22.1770    -4.2820     9.1070 ha         1 QDT       0.135000
     33 H3         -25.1980     2.0330    11.5900 hc         1 QDT       0.090200
     34 H4         -25.9280     3.2760    10.4750 hc         1 QDT       0.090200
     35 H5         -21.8990     0.1370     5.2650 ha         1 QDT       0.143000
     36 H6         -23.2990    -4.3570     6.9020 ha         1 QDT       0.126000
     37 H7         -23.5510    -4.5660     3.8410 h1         1 QDT       0.076700
     38 H8         -21.8570    -4.9340     4.2120 h1         1 QDT       0.076700
     39 H9         -22.5120    -0.1900     7.6280 ha         1 QDT       0.141000
     40 H10        -24.5230    -3.8340    14.5810 h1         1 QDT       0.049367
     41 H11        -24.3960    -4.9420    13.2000 h1         1 QDT       0.049367
     42 H12        -22.9780    -4.0030    13.7240 h1         1 QDT       0.049367
     43 H13        -28.1080     2.0200    10.4980 hc         1 QDT       0.090200
     44 H14        -27.3810     0.7660    11.6060 hc         1 QDT       0.090200
     45 H15        -27.5980     1.8840     6.1340 h1         1 QDT       0.060200
     46 H16        -28.2700     0.2520     6.1380 h1         1 QDT       0.060200
     47 H17        -25.3160     0.8860     5.7400 hc         1 QDT       0.062700
     48 H18        -25.7170    -1.3990     6.6340 hc         1 QDT       0.036200
     49 H19        -26.8690    -1.7160     5.3270 hc         1 QDT       0.036200
     50 H20        -25.1590    -1.4710     4.9730 hc         1 QDT       0.036200
     51 H21        -26.6960     1.7770     3.8680 hc         1 QDT       0.036200
     52 H22        -25.7320     0.3980     3.3420 hc         1 QDT       0.036200
     53 H23        -27.4510     0.1950     3.6620 hc         1 QDT       0.036200
     54 O3         -21.6100    -1.1920     2.5670 o          1 QDT      -0.476000
@<TRIPOS>BOND
     1     1     2 1   
     2     1    18 2   
     3     1    31 1   
     4     2     3 2   
     5     2    32 1   
     6     3    16 1   
     7     3    17 1   
     8     4     6 1   
     9     4    21 1   
    10     4    22 2   
    11     5    17 1   
    12     5    18 1   
    13     5    21 2   
    14     6     7 1   
    15     6    23 1   
    16     6    24 1   
    17     7    23 1   
    18     7    33 1   
    19     7    34 1   
    20     8    14 ar  
    21     8    15 ar  
    22     8    35 1   
    23     9    10 ar  
    24     9    13 1   
    25     9    14 ar  
    26    10    16 ar  
    27    10    36 1   
    28    11    12 1   
    29    11    14 1   
    30    11    54 2   
    31    12    13 1   
    32    13    37 1   
    33    13    38 1   
    34    15    16 ar  
    35    15    39 1   
    36    17    22 1   
    37    18    19 1   
    38    19    20 1   
    39    20    40 1   
    40    20    41 1   
    41    20    42 1   
    42    23    43 1   
    43    23    44 1   
    44    24    25 2   
    45    24    26 1   
    46    26    27 1   
    47    27    28 1   
    48    27    45 1   
    49    27    46 1   
    50    28    29 1   
    51    28    30 1   
    52    28    47 1   
    53    29    48 1   
    54    29    49 1   
    55    29    50 1   
    56    30    51 1   
    57    30    52 1   
    58    30    53 1   
@<TRIPOS>SUBSTRUCTURE
     1 QDT         1 TEMP              0 ****  ****    0 ROOT
