@<TRIPOS>MOLECULE
QDT
   54    58     1     0     0
SMALL
No Charge or Current Charge


@<TRIPOS>ATOM
      1 C2         -23.3380    -3.7330    10.7950 cc         1 QDT      -0.210000
      2 C3         -22.9160    -3.4870     9.4380 cc         1 QDT      -0.095000
      3 C4         -23.1910    -2.3150     8.7200 cd         1 QDT      -0.051000
      4 C5         -25.2580     0.1500     9.9350 cc         1 QDT       0.567300
      5 C6         -24.4500    -1.6310    10.7170 cd         1 QDT      -0.079000
      6 C7         -26.1070     1.3550     9.8720 cx         1 QDT      -0.217300
      7 C8         -25.9090     2.4700    10.8860 cx         1 QDT      -0.083900
      8 C17        -22.3510    -0.7570     5.3000 ca         1 QDT      -0.033000
      9 C21        -22.3610    -3.1650     5.1050 ca         1 QDT      -0.110300
     10 C22        -22.6620    -3.3170     6.4660 ca         1 QDT      -0.079000
     11 C19        -21.9130    -2.0960     3.1060 c          1 QDT       0.672700
     12 O4         -21.8820    -3.4470     2.8220 os         1 QDT      -0.426100
     13 C20        -22.1600    -4.2170     4.0410 c5         1 QDT       0.204900
     14 C18        -22.2170    -1.9270     4.5450 ca         1 QDT      -0.184600
     15 C16        -22.6550    -0.8850     6.6700 ca         1 QDT      -0.074000
     16 C15        -22.8330    -2.1630     7.2780 ca         1 QDT      -0.007000
     17 N          -23.9660    -1.3860     9.4580 na         1 QDT       0.317400
     18 C1         -24.1200    -2.8060    11.4490 cd         1 QDT       0.183100
     19 O          -24.6160    -2.9920    12.7180 os         1 QDT      -0.297100
     20 C          -24.3410    -4.1930    13.4600 c3         1 QDT       0.140900
     21 N2         -25.2560    -0.6480    11.0560 nc         1 QDT      -0.369300
     22 N1         -24.4990    -0.2590     8.9270 nd         1 QDT      -0.580100
     23 C9         -27.1770     1.6450    10.9140 cx         1 QDT      -0.083900
     24 C10        -26.3980     1.7100     8.4400 c          1 QDT       0.640100
     25 O1         -25.8590     2.6410     7.8570 o          1 QDT      -0.485000
     26 O2         -27.3230     0.8670     7.8750 os         1 QDT      -0.428100
     27 C11        -27.5220     0.9120     6.4470 c3         1 QDT       0.163600
     28 C12        -26.3480     0.1750     5.7380 c3         1 QDT      -0.083700
     29 C14        -26.3290    -1.3400     6.0570 c3         1 QDT      -0.088100
     30 C13        -26.3770     0.4140     4.2120 c3         1 QDT      -0.088100
     31 H1         -23.0440    -4.6700    11.2550 ha         1 QDT       0.133000
     32 H2         -22.3240    -4.2730     8.9810 ha         1 QDT       0.135000
     33 H3         -25.1880     2.3130    11.6860 hc         1 QDT       0.090200
     34 H4         -25.9830     3.4990    10.5420 hc         1 QDT       0.090200
     35 H5         -22.2190     0.2230     4.8460 ha         1 QDT       0.143000
     36 H6         -22.8020    -4.3180     6.8640 ha         1 QDT       0.126000
     37 H7         -23.0610    -4.8290     3.8950 h1         1 QDT       0.076700
     38 H8         -21.3090    -4.8730     4.2680 h1         1 QDT       0.076700
     39 H9         -22.7160     0.0260     7.2560 ha         1 QDT       0.141000
     40 H10        -24.8240    -4.1500    14.4440 h1         1 QDT       0.049367
     41 H11        -24.7250    -5.0750    12.9320 h1         1 QDT       0.049367
     42 H12        -23.2620    -4.3170    13.6180 h1         1 QDT       0.049367
     43 H13        -28.0960     2.1230    10.5810 hc         1 QDT       0.090200
     44 H14        -27.3100     0.9530    11.7420 hc         1 QDT       0.090200
     45 H15        -27.5910     1.9500     6.0930 h1         1 QDT       0.060200
     46 H16        -28.4630     0.4140     6.1820 h1         1 QDT       0.060200
     47 H17        -25.4050     0.5990     6.1030 hc         1 QDT       0.062700
     48 H18        -26.2700    -1.5180     7.1370 hc         1 QDT       0.036200
     49 H19        -27.2370    -1.8290     5.6820 hc         1 QDT       0.036200
     50 H20        -25.4630    -1.8230     5.5900 hc         1 QDT       0.036200
     51 H21        -26.3300     1.4860     3.9870 hc         1 QDT       0.036200
     52 H22        -25.5200    -0.0700     3.7280 hc         1 QDT       0.036200
     53 H23        -27.2960     0.0100     3.7700 hc         1 QDT       0.036200
     54 O3         -21.7200    -1.2010     2.2970 o          1 QDT      -0.476000
@<TRIPOS>BOND
     1     1     2 1   
     2     1    18 2   
     3     1    31 1   
     4     2     3 2   
     5     2    32 1   
     6     3    16 1   
     7     3    17 1   
     8     4     6 1   
     9     4    21 1   
    10     4    22 2   
    11     5    17 1   
    12     5    18 1   
    13     5    21 2   
    14     6     7 1   
    15     6    23 1   
    16     6    24 1   
    17     7    23 1   
    18     7    33 1   
    19     7    34 1   
    20     8    14 ar  
    21     8    15 ar  
    22     8    35 1   
    23     9    10 ar  
    24     9    13 1   
    25     9    14 ar  
    26    10    16 ar  
    27    10    36 1   
    28    11    12 1   
    29    11    14 1   
    30    11    54 2   
    31    12    13 1   
    32    13    37 1   
    33    13    38 1   
    34    15    16 ar  
    35    15    39 1   
    36    17    22 1   
    37    18    19 1   
    38    19    20 1   
    39    20    40 1   
    40    20    41 1   
    41    20    42 1   
    42    23    43 1   
    43    23    44 1   
    44    24    25 2   
    45    24    26 1   
    46    26    27 1   
    47    27    28 1   
    48    27    45 1   
    49    27    46 1   
    50    28    29 1   
    51    28    30 1   
    52    28    47 1   
    53    29    48 1   
    54    29    49 1   
    55    29    50 1   
    56    30    51 1   
    57    30    52 1   
    58    30    53 1   
@<TRIPOS>SUBSTRUCTURE
     1 QDT         1 TEMP              0 ****  ****    0 ROOT
