@<TRIPOS>MOLECULE
QDU
   34    36     1     0     0
SMALL
No Charge or Current Charge


@<TRIPOS>ATOM
      1 N1         -16.6210     4.2460    25.4750 nb         1 QDU      -0.641000
      2 C4         -22.1660     3.7440    29.3480 ca         1 QDU      -0.081300
      3 C5         -22.0630     3.5910    27.8300 c3         1 QDU      -0.104100
      4 C6         -20.5970     3.4920    27.3910 c          1 QDU       0.604100
      5 C7         -18.7790     4.9840    26.3540 ca         1 QDU      -0.067000
      6 C8         -17.8460     3.9810    25.9880 ca         1 QDU       0.311900
      7 C10        -17.1290     6.6130    25.6300 ca         1 QDU      -0.083000
      8 C13        -18.8430     8.7400    26.2880 ca         1 QDU      -0.090000
      9 C15        -18.4080     6.3380    26.1640 ca         1 QDU      -0.033000
     10 O          -19.9580     2.4540    27.5150 o          1 QDU      -0.564100
     11 C3         -21.9450     4.9930    29.9710 ca         1 QDU       0.158000
     12 F1         -21.6390     6.0810    29.2290 f          1 QDU      -0.183000
     13 C2         -22.0360     5.1240    31.3670 ca         1 QDU      -0.118000
     14 C1         -22.3500     4.0040    32.1580 ca         1 QDU      -0.116000
     15 C16        -22.4790     2.6260    30.1500 ca         1 QDU      -0.106000
     16 C          -22.5700     2.7600    31.5460 ca         1 QDU       0.154000
     17 F          -22.8690     1.6830    32.3050 f          1 QDU      -0.177000
     18 N          -20.0670     4.6700    26.8810 ns         1 QDU      -0.150000
     19 C14        -19.2630     7.4150    26.4930 ca         1 QDU      -0.110000
     20 C12        -17.5710     9.0050    25.7550 ca         1 QDU      -0.110000
     21 C11        -16.7130     7.9430    25.4260 ca         1 QDU      -0.080000
     22 C9         -16.2760     5.5410    25.3050 ca         1 QDU       0.340900
     23 H1         -22.5370     4.4560    27.3500 hc         1 QDU       0.072700
     24 H2         -22.5820     2.6790    27.5120 hc         1 QDU       0.072700
     25 H3         -18.0780     2.9230    26.0830 h4         1 QDU       0.045100
     26 H4         -19.5060     9.5650    26.5440 ha         1 QDU       0.116000
     27 H5         -21.8630     6.0910    31.8330 ha         1 QDU       0.139000
     28 H6         -22.4220     4.0970    33.2390 ha         1 QDU       0.139000
     29 H7         -22.6490     1.6530    29.6970 ha         1 QDU       0.138000
     30 H8         -20.7120     5.4490    26.8850 hn         1 QDU       0.153000
     31 H9         -20.2510     7.2440    26.9110 ha         1 QDU       0.110000
     32 H10        -17.2500    10.0330    25.5970 ha         1 QDU       0.118000
     33 H11        -15.7280     8.1540    25.0140 ha         1 QDU       0.119000
     34 H12        -15.2840     5.7240    24.8920 h4         1 QDU       0.022100
@<TRIPOS>BOND
     1     1     6 ar  
     2     1    22 ar  
     3     2     3 1   
     4     2    11 ar  
     5     2    15 ar  
     6     3     4 1   
     7     3    23 1   
     8     3    24 1   
     9     4    10 2   
    10     4    18 1   
    11     5     6 ar  
    12     5     9 ar  
    13     5    18 1   
    14     6    25 1   
    15     7     9 ar  
    16     7    21 ar  
    17     7    22 ar  
    18     8    19 ar  
    19     8    20 ar  
    20     8    26 1   
    21     9    19 ar  
    22    11    12 1   
    23    11    13 ar  
    24    13    14 ar  
    25    13    27 1   
    26    14    16 ar  
    27    14    28 1   
    28    15    16 ar  
    29    15    29 1   
    30    16    17 1   
    31    18    30 1   
    32    19    31 1   
    33    20    21 ar  
    34    20    32 1   
    35    21    33 1   
    36    22    34 1   
@<TRIPOS>SUBSTRUCTURE
     1 QDU         1 TEMP              0 ****  ****    0 ROOT
