@<TRIPOS>MOLECULE
QDU
   34    36     1     0     0
SMALL
abcg2


@<TRIPOS>ATOM
      1 N1         -16.6210     4.2850    25.6980 nb         1 QDU      -0.641000
      2 C4         -22.1890     3.7790    29.6290 ca         1 QDU      -0.081300
      3 C5         -21.8880     4.1140    28.1970 c3         1 QDU      -0.104100
      4 C6         -20.3900     4.1120    27.9000 c          1 QDU       0.604100
      5 C7         -18.7350     5.1970    26.4020 ca         1 QDU      -0.067000
      6 C8         -17.8500     4.1510    26.2540 ca         1 QDU       0.311900
      7 C10        -17.0690     6.6210    25.3570 ca         1 QDU      -0.083000
      8 C13        -18.7080     8.8640    25.6120 ca         1 QDU      -0.090000
      9 C15        -18.3540     6.4960    25.9550 ca         1 QDU      -0.033000
     10 O          -19.6190     3.3340    28.4410 o          1 QDU      -0.564100
     11 C3         -21.9390     4.6980    30.6410 ca         1 QDU       0.158000
     12 F1         -21.4280     5.9090    30.2930 f          1 QDU      -0.183000
     13 C2         -22.1810     4.4440    31.9770 ca         1 QDU      -0.118000
     14 C1         -22.6970     3.2040    32.3410 ca         1 QDU      -0.116000
     15 C16        -22.7050     2.5410    30.0050 ca         1 QDU      -0.106000
     16 C          -22.9460     2.2810    31.3430 ca         1 QDU       0.154000
     17 F          -23.4470     1.0660    31.6850 f          1 QDU      -0.177000
     18 N          -20.0150     5.0200    26.9560 ns         1 QDU      -0.150000
     19 C14        -19.1590     7.6540    26.0780 ca         1 QDU      -0.110000
     20 C12        -17.4390     8.9820    25.0050 ca         1 QDU      -0.110000
     21 C11        -16.6330     7.8800    24.8840 ca         1 QDU      -0.080000
     22 C9         -16.2540     5.4680    25.2650 ca         1 QDU       0.340900
     23 H1         -22.3260     5.0750    27.9240 hc         1 QDU       0.072700
     24 H2         -22.3350     3.3590    27.5450 hc         1 QDU       0.072700
     25 H3         -18.1200     3.1610    26.5890 h4         1 QDU       0.045100
     26 H4         -19.3310     9.7420    25.7170 ha         1 QDU       0.116000
     27 H5         -21.9680     5.2020    32.7180 ha         1 QDU       0.139000
     28 H6         -22.9010     2.9620    33.3750 ha         1 QDU       0.139000
     29 H7         -22.9160     1.7850    29.2610 ha         1 QDU       0.138000
     30 H8         -20.7330     5.6520    26.6390 hn         1 QDU       0.153000
     31 H9         -20.1280     7.6020    26.5550 ha         1 QDU       0.110000
     32 H10        -17.1060     9.9460    24.6440 ha         1 QDU       0.118000
     33 H11        -15.6530     7.9550    24.4280 ha         1 QDU       0.119000
     34 H12        -15.2700     5.5540    24.8140 h4         1 QDU       0.022100
@<TRIPOS>BOND
     1     1     6 ar  
     2     1    22 ar  
     3     2     3 1   
     4     2    11 ar  
     5     2    15 ar  
     6     3     4 1   
     7     3    23 1   
     8     3    24 1   
     9     4    10 2   
    10     4    18 1   
    11     5     6 ar  
    12     5     9 ar  
    13     5    18 1   
    14     6    25 1   
    15     7     9 ar  
    16     7    21 ar  
    17     7    22 ar  
    18     8    19 ar  
    19     8    20 ar  
    20     8    26 1   
    21     9    19 ar  
    22    11    12 1   
    23    11    13 ar  
    24    13    14 ar  
    25    13    27 1   
    26    14    16 ar  
    27    14    28 1   
    28    15    16 ar  
    29    15    29 1   
    30    16    17 1   
    31    18    30 1   
    32    19    31 1   
    33    20    21 ar  
    34    20    32 1   
    35    21    33 1   
    36    22    34 1   
@<TRIPOS>SUBSTRUCTURE
     1 QDU         1 TEMP              0 ****  ****    0 ROOT
