@<TRIPOS>MOLECULE
QDV
   78    81     1     0     0
SMALL
No Charge or Current Charge


@<TRIPOS>ATOM
      1 C10         -1.6760    -3.2830     1.0350 c3         1 QDV       0.025600
      2 C20          2.0030    -1.4530     1.1540 c          1 QDV       0.623100
      3 C30          5.5620     2.1240     1.8420 ca         1 QDV      -0.068000
      4 C40         -6.3330     2.3220     0.6340 ca         1 QDV      -0.132000
      5 C02         -0.6820     1.3930    -1.7630 c3         1 QDV       0.226000
      6 C03          0.0240     2.7050    -1.3560 c3         1 QDV      -0.109100
      7 C04         -2.0000     1.7190    -2.5110 c3         1 QDV      -0.109100
      8 C06         -1.6490    -0.4560    -0.4470 c          1 QDV       0.660100
      9 C09         -2.4550    -1.9870     1.3940 c3         1 QDV       0.160700
     10 C12          1.0410    -2.4890     0.5280 c3         1 QDV      -0.020700
     11 C13          1.7840    -3.5190    -0.3490 c3         1 QDV      -0.020100
     12 C14          2.3380    -2.8700    -1.6110 ca         1 QDV      -0.092300
     13 C15          1.5420    -2.7900    -2.7710 ca         1 QDV      -0.104500
     14 C16          2.0370    -2.1660    -3.9290 ca         1 QDV      -0.113500
     15 C17          3.3290    -1.6120    -3.9320 ca         1 QDV      -0.110000
     16 C18          4.1260    -1.6870    -2.7780 ca         1 QDV      -0.113500
     17 C19          3.6330    -2.3160    -1.6210 ca         1 QDV      -0.104500
     18 C23          2.5080     1.0060     1.3080 c3         1 QDV       0.100000
     19 C24          3.6980     1.2340     0.3540 c3         1 QDV      -0.056100
     20 C25          4.6090     2.3570     0.8330 ca         1 QDV      -0.130300
     21 C26          4.5160     3.6530     0.2790 ca         1 QDV       0.336900
     22 C28          6.2140     4.4520     1.6420 ca         1 QDV       0.333900
     23 C29          6.3750     3.1950     2.2500 ca         1 QDV      -0.162000
     24 C31         -3.9530    -2.0720     1.0020 c3         1 QDV      -0.019200
     25 C32         -4.7310    -0.8290     1.3620 cc         1 QDV      -0.138400
     26 C33         -5.1220    -0.4250     2.6360 cd         1 QDV      -0.164100
     27 C35         -5.7910     1.1680     1.2200 ca         1 QDV      -0.049200
     28 C36         -5.1760     0.2060     0.4690 ca         1 QDV      -0.090800
     29 C37         -5.0640     0.3180    -0.9260 ca         1 QDV      -0.057000
     30 C38         -5.6020     1.4680    -1.5430 ca         1 QDV      -0.145000
     31 C39         -6.2330     2.4680    -0.7660 ca         1 QDV      -0.090000
     32 N08         -1.8130    -0.7730     0.8710 ns         1 QDV      -0.496900
     33 N22          1.6900    -0.1350     0.8940 ns         1 QDV      -0.493900
     34 N27          5.3010     4.6860     0.6700 nb         1 QDV      -0.664000
     35 N34         -5.7870     0.8230     2.5580 na         1 QDV      -0.222700
     36 O05         -0.9850     0.7390    -0.5080 os         1 QDV      -0.475100
     37 O07         -2.0010    -1.1510    -1.3840 o          1 QDV      -0.567000
     38 O21          2.9780    -1.7660     1.8260 o          1 QDV      -0.590100
     39 S11          0.0070    -3.3340     1.8250 ss         1 QDV      -0.360000
     40 H1          -2.2420    -4.1460     1.4100 h1         1 QDV       0.070700
     41 H2          -1.5830    -3.3930    -0.0520 h1         1 QDV       0.070700
     42 H4          -6.8180     3.0840     1.2400 ha         1 QDV       0.111000
     43 H5           0.6960     1.0800    -3.4320 hc         1 QDV       0.048700
     44 H6           1.1220     0.1610    -1.9770 hc         1 QDV       0.048700
     45 H7          -0.2240    -0.3640    -3.0140 hc         1 QDV       0.048700
     46 H8          -0.6230     3.3160    -0.7160 hc         1 QDV       0.048700
     47 H9           0.9500     2.4970    -0.8090 hc         1 QDV       0.048700
     48 H10          0.2820     3.2980    -2.2420 hc         1 QDV       0.048700
     49 H11         -2.4670     0.8220    -2.9320 hc         1 QDV       0.048700
     50 H12         -2.7190     2.2020    -1.8380 hc         1 QDV       0.048700
     51 H13         -1.8060     2.4040    -3.3450 hc         1 QDV       0.048700
     52 H14         -2.4290    -1.9000     2.4890 h1         1 QDV       0.055700
     53 H15          0.3680    -1.9420    -0.1350 h1         1 QDV       0.070700
     54 H16          2.5840    -3.9960     0.2320 hc         1 QDV       0.065700
     55 H17          1.0890    -4.3230    -0.6230 hc         1 QDV       0.065700
     56 H18          0.5350    -3.2030    -2.7740 ha         1 QDV       0.117000
     57 H19          1.4170    -2.1050    -4.8210 ha         1 QDV       0.113500
     58 H20          3.7100    -1.1270    -4.8280 ha         1 QDV       0.114000
     59 H21          5.1250    -1.2570    -2.7780 ha         1 QDV       0.113500
     60 H22          4.2570    -2.3660    -0.7310 ha         1 QDV       0.117000
     61 H23          2.8780     0.8310     2.3270 h1         1 QDV       0.064200
     62 H24          1.8770     1.9050     1.3320 h1         1 QDV       0.064200
     63 H25          4.2740     0.3040     0.2660 hc         1 QDV       0.056200
     64 H26          3.3150     1.4530    -0.6510 hc         1 QDV       0.056200
     65 H27          3.7880     3.8710    -0.5040 h4         1 QDV       0.016100
     66 H28          6.8330     5.2980     1.9430 h4         1 QDV       0.019100
     67 H29          7.1230     3.0600     3.0270 ha         1 QDV       0.124000
     68 H30         -4.0430    -2.2770    -0.0710 hc         1 QDV       0.058700
     69 H31         -4.4020    -2.9340     1.5110 hc         1 QDV       0.058700
     70 H32         -4.9630    -0.9260     3.5880 h4         1 QDV       0.209000
     71 H33         -4.5810    -0.4550    -1.5180 ha         1 QDV       0.127000
     72 H34         -5.5300     1.5840    -2.6220 ha         1 QDV       0.109000
     73 H35         -6.6440     3.3510    -1.2500 ha         1 QDV       0.109000
     74 H36         -1.5020    -0.0710     1.5280 hn         1 QDV       0.334500
     75 H37          0.8560     0.0430     0.3440 hn         1 QDV       0.311500
     76 H38         -6.1780     1.3590     3.3280 hn         1 QDV       0.349000
     77 H3           5.6700     1.1410     2.2990 ha         1 QDV       0.121000
     78 C01          0.2830     0.5100    -2.5910 c3         1 QDV      -0.109100
@<TRIPOS>BOND
     1     1     9 1   
     2     1    39 1   
     3     1    40 1   
     4     1    41 1   
     5     2    10 1   
     6     2    33 1   
     7     2    38 2   
     8     3    20 ar  
     9     3    23 ar  
    10     3    77 1   
    11     4    27 ar  
    12     4    31 ar  
    13     4    42 1   
    14     5     6 1   
    15     5     7 1   
    16     5    36 1   
    17     5    78 1   
    18     6    46 1   
    19     6    47 1   
    20     6    48 1   
    21     7    49 1   
    22     7    50 1   
    23     7    51 1   
    24     8    32 1   
    25     8    36 1   
    26     8    37 2   
    27     9    24 1   
    28     9    32 1   
    29     9    52 1   
    30    10    11 1   
    31    10    39 1   
    32    10    53 1   
    33    11    12 1   
    34    11    54 1   
    35    11    55 1   
    36    12    13 ar  
    37    12    17 ar  
    38    13    14 ar  
    39    13    56 1   
    40    14    15 ar  
    41    14    57 1   
    42    15    16 ar  
    43    15    58 1   
    44    16    17 ar  
    45    16    59 1   
    46    17    60 1   
    47    18    19 1   
    48    18    33 1   
    49    18    61 1   
    50    18    62 1   
    51    19    20 1   
    52    19    63 1   
    53    19    64 1   
    54    20    21 ar  
    55    21    34 ar  
    56    21    65 1   
    57    22    23 ar  
    58    22    34 ar  
    59    22    66 1   
    60    23    67 1   
    61    24    25 1   
    62    24    68 1   
    63    24    69 1   
    64    25    26 2   
    65    25    28 1   
    66    26    35 1   
    67    26    70 1   
    68    27    28 ar  
    69    27    35 1   
    70    28    29 ar  
    71    29    30 ar  
    72    29    71 1   
    73    30    31 ar  
    74    30    72 1   
    75    31    73 1   
    76    32    74 1   
    77    33    75 1   
    78    35    76 1   
    79    43    78 1   
    80    44    78 1   
    81    45    78 1   
@<TRIPOS>SUBSTRUCTURE
     1 QDV         1 TEMP              0 ****  ****    0 ROOT
